-45.88325749
     RDKit          3D

 33 32  0  0  1  0  0  0  0  0999 V2000
   -0.0124   -1.0330   -0.2858 N   0  0  0  0  0  0  0  0  0  0  0  0
    0.3918    0.2754   -0.7425 C   0  0  2  0  0  0  0  0  0  0  0  0
    1.7537    0.7134   -0.1754 C   0  0  0  0  0  0  0  0  0  0  0  0
    2.4693    1.4970   -0.7629 O   0  0  0  0  0  0  0  0  0  0  0  0
   -0.6594    1.3001   -0.3048 C   0  0  1  0  0  0  0  0  0  0  0  0
   -1.9911    1.0980   -1.0324 C   0  0  2  0  0  0  0  0  0  0  0  0
   -0.7458   -1.0572    0.4114 H   0  0  0  0  0  0  0  0  0  0  0  0
    0.4794    0.2890   -1.8354 H   0  0  0  0  0  0  0  0  0  0  0  0
   -0.8226    1.1899    0.7683 H   0  0  0  0  0  0  0  0  0  0  0  0
   -2.1602    0.0321   -1.1978 H   0  0  0  0  0  0  0  0  0  0  0  0
   -1.9458    1.5781   -2.0119 H   0  0  0  0  0  0  0  0  0  0  0  0
    2.0423    0.1890    1.0298 N   0  0  0  0  0  0  0  0  0  0  0  0
    1.4107   -0.4867    1.4318 H   0  0  0  0  0  0  0  0  0  0  0  0
    3.2639    0.4792    1.7379 C   0  0  2  0  0  0  0  0  0  0  0  0
    3.0465    0.9145    2.7148 H   0  0  0  0  0  0  0  0  0  0  0  0
    3.8261    1.1949    1.1400 H   0  0  0  0  0  0  0  0  0  0  0  0
    3.8581   -0.4264    1.8738 H   0  0  0  0  0  0  0  0  0  0  0  0
    0.4755   -2.2381   -0.6684 C   0  0  0  0  0  0  0  0  0  0  0  0
    0.0589   -3.2608   -0.1627 O   0  0  0  0  0  0  0  0  0  0  0  0
    1.5416   -2.2054   -1.7366 C   0  0  2  0  0  0  0  0  0  0  0  0
    2.3455   -1.5266   -1.4624 H   0  0  0  0  0  0  0  0  0  0  0  0
    1.1087   -1.8652   -2.6755 H   0  0  0  0  0  0  0  0  0  0  0  0
    1.9365   -3.2080   -1.8722 H   0  0  0  0  0  0  0  0  0  0  0  0
   -0.2767    2.3032   -0.4965 H   0  0  0  0  0  0  0  0  0  0  0  0
   -3.1758    1.6616   -0.2469 C   0  0  2  0  0  0  0  0  0  0  0  0
   -4.0365    1.7406   -0.9139 H   0  0  0  0  0  0  0  0  0  0  0  0
   -2.9355    2.6657    0.1087 H   0  0  0  0  0  0  0  0  0  0  0  0
   -3.5883    0.7861    0.9390 C   0  0  2  0  0  0  0  0  0  0  0  0
   -3.6817   -0.2517    0.6058 H   0  0  0  0  0  0  0  0  0  0  0  0
   -4.5827    1.1141    1.2855 H   0  0  0  0  0  0  0  0  0  0  0  0
   -2.5944    0.8143    2.0075 N   0  0  0  0  0  0  0  0  0  0  0  0
   -2.8664    0.1762    2.7484 H   0  0  0  0  0  0  0  0  0  0  0  0
   -2.5532    1.7461    2.4104 H   0  0  0  0  0  0  0  0  0  0  0  0
  1  7  1  0
  2  8  1  6
  2  5  1  0
  2  1  1  0
  2  3  1  0
  3 12  1  0
  4  3  2  0
  5  9  1  1
  6  5  1  0
  6 25  1  0
  6 10  1  6
 11  6  1  0
 12 13  1  0
 12 14  1  0
 14 17  1  1
 14 15  1  0
 16 14  1  0
 18  1  1  0
 18 19  2  0
 20 21  1  1
 20 18  1  0
 22 20  1  0
 23 20  1  0
 24  5  1  0
 25 27  1  1
 25 28  1  0
 26 25  1  0
 28 30  1  1
 28 31  1  0
 29 28  1  0
 31 33  1  0
 31 32  1  0
M  END
$$$$
