-45.88642500
     RDKit          3D

 33 32  0  0  1  0  0  0  0  0999 V2000
   -0.1702   -0.8881   -0.3061 N   0  0  0  0  0  0  0  0  0  0  0  0
    0.3962    0.2330   -1.0081 C   0  0  2  0  0  0  0  0  0  0  0  0
    1.6376    0.8299   -0.3166 C   0  0  0  0  0  0  0  0  0  0  0  0
    2.3155    1.6773   -0.8592 O   0  0  0  0  0  0  0  0  0  0  0  0
   -0.6459    1.3501   -1.1826 C   0  0  1  0  0  0  0  0  0  0  0  0
   -1.1653    1.9135    0.1499 C   0  0  2  0  0  0  0  0  0  0  0  0
   -0.9419   -0.6902    0.3459 H   0  0  0  0  0  0  0  0  0  0  0  0
    0.7229   -0.0758   -2.0082 H   0  0  0  0  0  0  0  0  0  0  0  0
   -0.1694    2.1412   -1.7621 H   0  0  0  0  0  0  0  0  0  0  0  0
   -0.8979    2.9686    0.2238 H   0  0  0  0  0  0  0  0  0  0  0  0
   -0.6821    1.4047    0.9839 H   0  0  0  0  0  0  0  0  0  0  0  0
    1.8805    0.3493    0.9164 N   0  0  0  0  0  0  0  0  0  0  0  0
    1.2867   -0.3837    1.2762 H   0  0  0  0  0  0  0  0  0  0  0  0
    3.0016    0.7759    1.7155 C   0  0  2  0  0  0  0  0  0  0  0  0
    2.6600    1.1939    2.6641 H   0  0  0  0  0  0  0  0  0  0  0  0
    3.5313    1.5424    1.1518 H   0  0  0  0  0  0  0  0  0  0  0  0
    3.6762   -0.0588    1.9154 H   0  0  0  0  0  0  0  0  0  0  0  0
    0.1761   -2.1892   -0.3986 C   0  0  0  0  0  0  0  0  0  0  0  0
   -0.4031   -3.0285    0.2674 O   0  0  0  0  0  0  0  0  0  0  0  0
    1.3071   -2.5280   -1.3454 C   0  0  2  0  0  0  0  0  0  0  0  0
    1.5584   -3.5783   -1.2286 H   0  0  0  0  0  0  0  0  0  0  0  0
    2.1822   -1.9166   -1.1378 H   0  0  0  0  0  0  0  0  0  0  0  0
    0.9952   -2.3538   -2.3736 H   0  0  0  0  0  0  0  0  0  0  0  0
   -1.4740    0.9588   -1.7745 H   0  0  0  0  0  0  0  0  0  0  0  0
   -2.6822    1.7991    0.3242 C   0  0  2  0  0  0  0  0  0  0  0  0
   -3.1884    2.3235   -0.4882 H   0  0  0  0  0  0  0  0  0  0  0  0
   -2.9556    2.2950    1.2590 H   0  0  0  0  0  0  0  0  0  0  0  0
   -3.1965    0.3576    0.3665 C   0  0  2  0  0  0  0  0  0  0  0  0
   -3.0704   -0.1185   -0.6095 H   0  0  0  0  0  0  0  0  0  0  0  0
   -4.2756    0.3781    0.5864 H   0  0  0  0  0  0  0  0  0  0  0  0
   -2.4346   -0.4279    1.3301 N   0  0  0  0  0  0  0  0  0  0  0  0
   -2.7496   -1.3922    1.3433 H   0  0  0  0  0  0  0  0  0  0  0  0
   -2.5416   -0.0474    2.2649 H   0  0  0  0  0  0  0  0  0  0  0  0
  1  7  1  0
  2  8  1  6
  2  3  1  0
  2  1  1  0
  3 12  1  0
  4  3  2  0
  5  2  1  0
  5  6  1  0
  6 10  1  6
  6 25  1  0
  6 11  1  0
  5  9  1  6
 12 13  1  0
 12 14  1  0
 14 17  1  1
 14 15  1  0
 16 14  1  0
 18  1  1  0
 18 19  2  0
 20 21  1  6
 20 22  1  0
 20 18  1  0
 23 20  1  0
 24  5  1  0
 25 28  1  0
 25 27  1  1
 26 25  1  0
 28 30  1  1
 28 31  1  0
 29 28  1  0
 31 32  1  0
 31 33  1  0
M  END
$$$$
