-45.88205463
     RDKit          3D

 33 32  0  0  1  0  0  0  0  0999 V2000
    0.1920   -1.5163   -0.8566 N   0  0  0  0  0  0  0  0  0  0  0  0
    0.4011   -0.1244   -1.1733 C   0  0  2  0  0  0  0  0  0  0  0  0
    1.3500    0.5951   -0.1938 C   0  0  0  0  0  0  0  0  0  0  0  0
    1.8357    1.6715   -0.4692 O   0  0  0  0  0  0  0  0  0  0  0  0
   -0.9366    0.6301   -1.2031 C   0  0  1  0  0  0  0  0  0  0  0  0
   -1.5683    0.8011    0.1778 C   0  0  2  0  0  0  0  0  0  0  0  0
   -0.7053   -1.7709   -0.4667 H   0  0  0  0  0  0  0  0  0  0  0  0
    0.8593   -0.0383   -2.1664 H   0  0  0  0  0  0  0  0  0  0  0  0
   -0.7519    1.6164   -1.6316 H   0  0  0  0  0  0  0  0  0  0  0  0
   -0.8976    1.4015    0.7967 H   0  0  0  0  0  0  0  0  0  0  0  0
   -1.6949   -0.1692    0.6660 H   0  0  0  0  0  0  0  0  0  0  0  0
    1.5572   -0.0476    0.9700 N   0  0  0  0  0  0  0  0  0  0  0  0
    1.1406   -0.9556    1.1098 H   0  0  0  0  0  0  0  0  0  0  0  0
    2.4182    0.4686    2.0055 C   0  0  2  0  0  0  0  0  0  0  0  0
    3.2581   -0.2055    2.1822 H   0  0  0  0  0  0  0  0  0  0  0  0
    1.8632    0.5983    2.9363 H   0  0  0  0  0  0  0  0  0  0  0  0
    2.7935    1.4339    1.6690 H   0  0  0  0  0  0  0  0  0  0  0  0
    1.0405   -2.5563   -1.0681 C   0  0  0  0  0  0  0  0  0  0  0  0
    0.7280   -3.6789   -0.7308 O   0  0  0  0  0  0  0  0  0  0  0  0
    2.3568   -2.2131   -1.7216 C   0  0  2  0  0  0  0  0  0  0  0  0
    2.8547   -1.3999   -1.1996 H   0  0  0  0  0  0  0  0  0  0  0  0
    2.1843   -1.9084   -2.7523 H   0  0  0  0  0  0  0  0  0  0  0  0
    2.9902   -3.0954   -1.7173 H   0  0  0  0  0  0  0  0  0  0  0  0
   -1.6245    0.0967   -1.8636 H   0  0  0  0  0  0  0  0  0  0  0  0
   -2.9310    1.4856    0.0856 C   0  0  2  0  0  0  0  0  0  0  0  0
   -3.6001    0.8785   -0.5277 H   0  0  0  0  0  0  0  0  0  0  0  0
   -2.8171    2.4555   -0.4056 H   0  0  0  0  0  0  0  0  0  0  0  0
   -3.5806    1.6933    1.4646 C   0  0  2  0  0  0  0  0  0  0  0  0
   -3.6285    0.7365    1.9926 H   0  0  0  0  0  0  0  0  0  0  0  0
   -4.6047    2.0500    1.3228 H   0  0  0  0  0  0  0  0  0  0  0  0
   -2.9156    2.6404    2.3371 N   0  0  0  0  0  0  0  0  0  0  0  0
   -2.8595    3.5500    1.8909 H   0  0  0  0  0  0  0  0  0  0  0  0
   -1.9691    2.3384    2.5403 H   0  0  0  0  0  0  0  0  0  0  0  0
  1  7  1  0
  2  8  1  6
  2  1  1  0
  2  3  1  0
  3 12  1  0
  4  3  2  0
  5  2  1  0
  5  6  1  0
  6 11  1  1
  6 10  1  0
  5  9  1  6
 12 13  1  0
 12 14  1  0
 14 15  1  1
 14 16  1  0
 17 14  1  0
 18  1  1  0
 18 19  2  0
 20 23  1  6
 20 21  1  0
 20 18  1  0
 22 20  1  0
 24  5  1  0
 25  6  1  0
 25 28  1  0
 25 26  1  6
 27 25  1  0
 28 29  1  1
 28 31  1  0
 30 28  1  0
 31 33  1  0
 32 31  1  0
M  END
$$$$
