-45.88199872
     RDKit          3D

 33 32  0  0  1  0  0  0  0  0999 V2000
    0.3279   -0.9427    0.5486 N   0  0  0  0  0  0  0  0  0  0  0  0
    0.4359    0.3463   -0.0881 C   0  0  2  0  0  0  0  0  0  0  0  0
    1.8887    0.8350   -0.2560 C   0  0  0  0  0  0  0  0  0  0  0  0
    2.1483    1.7843   -0.9645 O   0  0  0  0  0  0  0  0  0  0  0  0
   -0.3262    1.4049    0.7194 C   0  0  1  0  0  0  0  0  0  0  0  0
   -1.8298    1.1394    0.8062 C   0  0  2  0  0  0  0  0  0  0  0  0
    0.1307   -0.9451    1.5410 H   0  0  0  0  0  0  0  0  0  0  0  0
    0.0088    0.3009   -1.0948 H   0  0  0  0  0  0  0  0  0  0  0  0
    0.0938    1.4431    1.7287 H   0  0  0  0  0  0  0  0  0  0  0  0
   -2.2629    1.8686    1.4953 H   0  0  0  0  0  0  0  0  0  0  0  0
   -1.9982    0.1445    1.2260 H   0  0  0  0  0  0  0  0  0  0  0  0
    2.8058    0.1525    0.4524 N   0  0  0  0  0  0  0  0  0  0  0  0
    2.5161   -0.6479    0.9938 H   0  0  0  0  0  0  0  0  0  0  0  0
    4.2124    0.4702    0.4177 C   0  0  2  0  0  0  0  0  0  0  0  0
    4.5749    0.7137    1.4177 H   0  0  0  0  0  0  0  0  0  0  0  0
    4.3363    1.3344   -0.2330 H   0  0  0  0  0  0  0  0  0  0  0  0
    4.7882   -0.3685    0.0224 H   0  0  0  0  0  0  0  0  0  0  0  0
    0.4828   -2.1713   -0.0088 C   0  0  0  0  0  0  0  0  0  0  0  0
    0.3959   -3.1693    0.6758 O   0  0  0  0  0  0  0  0  0  0  0  0
    0.7681   -2.1937   -1.4908 C   0  0  2  0  0  0  0  0  0  0  0  0
    1.6143   -1.5550   -1.7328 H   0  0  0  0  0  0  0  0  0  0  0  0
   -0.1020   -1.8418   -2.0419 H   0  0  0  0  0  0  0  0  0  0  0  0
    0.9826   -3.2157   -1.7895 H   0  0  0  0  0  0  0  0  0  0  0  0
   -0.1501    2.3729    0.2478 H   0  0  0  0  0  0  0  0  0  0  0  0
   -2.5414    1.2570   -0.5412 C   0  0  2  0  0  0  0  0  0  0  0  0
   -2.2503    0.4293   -1.1927 H   0  0  0  0  0  0  0  0  0  0  0  0
   -2.2434    2.1882   -1.0264 H   0  0  0  0  0  0  0  0  0  0  0  0
   -4.0731    1.2493   -0.3969 C   0  0  2  0  0  0  0  0  0  0  0  0
   -4.5206    1.4317   -1.3783 H   0  0  0  0  0  0  0  0  0  0  0  0
   -4.3798    2.0612    0.2683 H   0  0  0  0  0  0  0  0  0  0  0  0
   -4.6521    0.0236    0.1165 N   0  0  0  0  0  0  0  0  0  0  0  0
   -4.3260   -0.1605    1.0585 H   0  0  0  0  0  0  0  0  0  0  0  0
   -4.3856   -0.7646   -0.4642 H   0  0  0  0  0  0  0  0  0  0  0  0
  1  7  1  0
  2  8  1  6
  2  1  1  0
  2  5  1  0
  3  2  1  0
  3 12  1  0
  4  3  2  0
  5  6  1  0
  5  9  1  1
  6 11  1  1
  6 10  1  0
 12 13  1  0
 14 12  1  0
 14 15  1  1
 16 14  1  0
 17 14  1  0
 18  1  1  0
 18 19  2  0
 20 18  1  0
 20 21  1  1
 22 20  1  0
 23 20  1  0
 24  5  1  0
 25 28  1  0
 25  6  1  0
 25 26  1  6
 27 25  1  0
 28 31  1  0
 28 30  1  1
 29 28  1  0
 31 32  1  0
 33 31  1  0
M  END
$$$$
