-45.88197311
     RDKit          3D

 33 32  0  0  1  0  0  0  0  0999 V2000
   -0.0929   -0.5845   -0.4653 N   0  0  0  0  0  0  0  0  0  0  0  0
    0.4199    0.7706   -0.4626 C   0  0  2  0  0  0  0  0  0  0  0  0
    1.9215    0.8425   -0.1482 C   0  0  0  0  0  0  0  0  0  0  0  0
    2.4153    1.7005    0.5512 O   0  0  0  0  0  0  0  0  0  0  0  0
   -0.3978    1.7186    0.4265 C   0  0  1  0  0  0  0  0  0  0  0  0
   -1.8639    1.7963   -0.0127 C   0  0  2  0  0  0  0  0  0  0  0  0
   -0.9385   -0.6948   -1.0372 H   0  0  0  0  0  0  0  0  0  0  0  0
    0.3277    1.1284   -1.4986 H   0  0  0  0  0  0  0  0  0  0  0  0
   -0.3352    1.4017    1.4680 H   0  0  0  0  0  0  0  0  0  0  0  0
   -1.9065    1.7148   -1.1004 H   0  0  0  0  0  0  0  0  0  0  0  0
   -2.2526    2.7810    0.2504 H   0  0  0  0  0  0  0  0  0  0  0  0
    2.6346   -0.1067   -0.7873 N   0  0  0  0  0  0  0  0  0  0  0  0
    2.1409   -0.8031   -1.3239 H   0  0  0  0  0  0  0  0  0  0  0  0
    4.0651   -0.2296   -0.6579 C   0  0  2  0  0  0  0  0  0  0  0  0
    4.3372   -1.1829   -0.2000 H   0  0  0  0  0  0  0  0  0  0  0  0
    4.4050    0.5862   -0.0220 H   0  0  0  0  0  0  0  0  0  0  0  0
    4.5470   -0.1532   -1.6340 H   0  0  0  0  0  0  0  0  0  0  0  0
   -0.0483   -1.5015    0.5327 C   0  0  0  0  0  0  0  0  0  0  0  0
   -0.8072   -2.4570    0.5048 O   0  0  0  0  0  0  0  0  0  0  0  0
    0.9981   -1.3528    1.6118 C   0  0  2  0  0  0  0  0  0  0  0  0
    0.6645   -1.9007    2.4899 H   0  0  0  0  0  0  0  0  0  0  0  0
    1.1848   -0.3166    1.8733 H   0  0  0  0  0  0  0  0  0  0  0  0
    1.9304   -1.7997    1.2712 H   0  0  0  0  0  0  0  0  0  0  0  0
    0.0685    2.7023    0.3583 H   0  0  0  0  0  0  0  0  0  0  0  0
   -2.7743    0.7216    0.6093 C   0  0  2  0  0  0  0  0  0  0  0  0
   -3.4358    1.1832    1.3441 H   0  0  0  0  0  0  0  0  0  0  0  0
   -2.1819   -0.0261    1.1371 H   0  0  0  0  0  0  0  0  0  0  0  0
   -3.6368   -0.0049   -0.4268 C   0  0  2  0  0  0  0  0  0  0  0  0
   -4.0691    0.7245   -1.1186 H   0  0  0  0  0  0  0  0  0  0  0  0
   -4.4694   -0.5060    0.0917 H   0  0  0  0  0  0  0  0  0  0  0  0
   -2.8243   -0.9416   -1.1983 N   0  0  0  0  0  0  0  0  0  0  0  0
   -3.3527   -1.3026   -1.9853 H   0  0  0  0  0  0  0  0  0  0  0  0
   -2.5741   -1.7367   -0.6102 H   0  0  0  0  0  0  0  0  0  0  0  0
  1  2  1  0
  1 18  1  0
  2  8  1  6
  2  3  1  0
  2  5  1  0
  3  4  2  0
  5  9  1  1
  6 11  1  6
  6  5  1  0
  6 25  1  0
  7  1  1  0
 10  6  1  0
 12 14  1  0
 12  3  1  0
 13 12  1  0
 14 15  1  1
 14 16  1  0
 17 14  1  0
 18 20  1  0
 19 18  2  0
 20 22  1  1
 20 21  1  0
 23 20  1  0
 24  5  1  0
 25 27  1  1
 25 26  1  0
 28 30  1  1
 28 25  1  0
 29 28  1  0
 31 33  1  0
 31 28  1  0
 32 31  1  0
M  END
$$$$
