-45.88186315
     RDKit          3D

 33 32  0  0  1  0  0  0  0  0999 V2000
    0.1786   -1.7715   -0.5659 N   0  0  0  0  0  0  0  0  0  0  0  0
    0.0474   -0.3479   -0.8097 C   0  0  2  0  0  0  0  0  0  0  0  0
    1.1757    0.3587   -0.0263 C   0  0  0  0  0  0  0  0  0  0  0  0
    2.2973    0.4068   -0.4973 O   0  0  0  0  0  0  0  0  0  0  0  0
   -1.3763    0.0821   -0.4594 C   0  0  1  0  0  0  0  0  0  0  0  0
   -1.6054    1.5770   -0.6790 C   0  0  2  0  0  0  0  0  0  0  0  0
   -0.2500   -2.1115    0.2852 H   0  0  0  0  0  0  0  0  0  0  0  0
    0.2424   -0.1604   -1.8700 H   0  0  0  0  0  0  0  0  0  0  0  0
   -2.0704   -0.4920   -1.0773 H   0  0  0  0  0  0  0  0  0  0  0  0
   -1.6824    1.7788   -1.7490 H   0  0  0  0  0  0  0  0  0  0  0  0
   -0.7464    2.1352   -0.3071 H   0  0  0  0  0  0  0  0  0  0  0  0
    0.8712    0.8027    1.2052 N   0  0  0  0  0  0  0  0  0  0  0  0
   -0.0926    0.9475    1.4997 H   0  0  0  0  0  0  0  0  0  0  0  0
    1.8737    1.4172    2.0434 C   0  0  2  0  0  0  0  0  0  0  0  0
    1.6869    2.4871    2.1577 H   0  0  0  0  0  0  0  0  0  0  0  0
    2.8445    1.2720    1.5723 H   0  0  0  0  0  0  0  0  0  0  0  0
    1.8734    0.9488    3.0284 H   0  0  0  0  0  0  0  0  0  0  0  0
    0.9974   -2.6732   -1.1704 C   0  0  0  0  0  0  0  0  0  0  0  0
    1.0541   -3.8103   -0.7494 O   0  0  0  0  0  0  0  0  0  0  0  0
    1.7685   -2.1838   -2.3686 C   0  0  2  0  0  0  0  0  0  0  0  0
    1.0856   -1.8836   -3.1610 H   0  0  0  0  0  0  0  0  0  0  0  0
    2.4016   -2.9889   -2.7292 H   0  0  0  0  0  0  0  0  0  0  0  0
    2.3824   -1.3323   -2.0840 H   0  0  0  0  0  0  0  0  0  0  0  0
   -1.5734   -0.1810    0.5794 H   0  0  0  0  0  0  0  0  0  0  0  0
   -2.8697    2.0979    0.0081 C   0  0  2  0  0  0  0  0  0  0  0  0
   -3.7540    1.6520   -0.4501 H   0  0  0  0  0  0  0  0  0  0  0  0
   -2.9227    3.1773   -0.1517 H   0  0  0  0  0  0  0  0  0  0  0  0
   -2.9203    1.8128    1.5133 C   0  0  2  0  0  0  0  0  0  0  0  0
   -3.1742    0.7641    1.6901 H   0  0  0  0  0  0  0  0  0  0  0  0
   -3.7282    2.4188    1.9526 H   0  0  0  0  0  0  0  0  0  0  0  0
   -1.6257    2.0591    2.1435 N   0  0  0  0  0  0  0  0  0  0  0  0
   -1.6933    1.9007    3.1440 H   0  0  0  0  0  0  0  0  0  0  0  0
   -1.3606    3.0305    2.0082 H   0  0  0  0  0  0  0  0  0  0  0  0
  1  7  1  0
  2  8  1  6
  2  1  1  0
  2  5  1  0
  2  3  1  0
  3 12  1  0
  4  3  2  0
  5 24  1  1
  6  5  1  0
  6 11  1  1
  6 25  1  0
  9  5  1  0
 10  6  1  0
 12 13  1  0
 12 14  1  0
 14 15  1  1
 14 17  1  0
 16 14  1  0
 18 19  2  0
 18  1  1  0
 20 23  1  1
 20 18  1  0
 21 20  1  0
 22 20  1  0
 25 28  1  0
 25 26  1  6
 27 25  1  0
 28 29  1  6
 28 30  1  0
 28 31  1  0
 31 32  1  0
 33 31  1  0
M  END
$$$$
