-45.88173375
     RDKit          3D

 33 32  0  0  1  0  0  0  0  0999 V2000
    0.1596   -1.3957    0.6374 N   0  0  0  0  0  0  0  0  0  0  0  0
    0.0139   -0.0066    0.2844 C   0  0  2  0  0  0  0  0  0  0  0  0
    1.3429    0.7683    0.2288 C   0  0  0  0  0  0  0  0  0  0  0  0
    1.3519    1.9517   -0.0511 O   0  0  0  0  0  0  0  0  0  0  0  0
   -0.9201    0.7124    1.2648 C   0  0  1  0  0  0  0  0  0  0  0  0
   -2.3917    0.3455    1.0857 C   0  0  2  0  0  0  0  0  0  0  0  0
    0.0926   -1.6226    1.6214 H   0  0  0  0  0  0  0  0  0  0  0  0
   -0.4172    0.0739   -0.7178 H   0  0  0  0  0  0  0  0  0  0  0  0
   -0.6119    0.4742    2.2872 H   0  0  0  0  0  0  0  0  0  0  0  0
   -2.9646    0.8917    1.8388 H   0  0  0  0  0  0  0  0  0  0  0  0
   -2.5244   -0.7215    1.2816 H   0  0  0  0  0  0  0  0  0  0  0  0
    2.4458    0.0536    0.5010 N   0  0  0  0  0  0  0  0  0  0  0  0
    2.3521   -0.9271    0.7198 H   0  0  0  0  0  0  0  0  0  0  0  0
    3.7726    0.6186    0.4760 C   0  0  2  0  0  0  0  0  0  0  0  0
    4.3911    0.1153   -0.2690 H   0  0  0  0  0  0  0  0  0  0  0  0
    4.2470    0.5291    1.4546 H   0  0  0  0  0  0  0  0  0  0  0  0
    3.6754    1.6713    0.2152 H   0  0  0  0  0  0  0  0  0  0  0  0
    0.3610   -2.4592   -0.1821 C   0  0  0  0  0  0  0  0  0  0  0  0
    0.4905   -3.5735    0.2815 O   0  0  0  0  0  0  0  0  0  0  0  0
    0.4278   -2.1581   -1.6604 C   0  0  2  0  0  0  0  0  0  0  0  0
    1.1747   -1.3959   -1.8694 H   0  0  0  0  0  0  0  0  0  0  0  0
   -0.5389   -1.8049   -2.0133 H   0  0  0  0  0  0  0  0  0  0  0  0
    0.6821   -3.0724   -2.1890 H   0  0  0  0  0  0  0  0  0  0  0  0
   -0.7888    1.7861    1.1301 H   0  0  0  0  0  0  0  0  0  0  0  0
   -2.9749    0.6557   -0.2954 C   0  0  2  0  0  0  0  0  0  0  0  0
   -4.0472    0.4564   -0.2455 H   0  0  0  0  0  0  0  0  0  0  0  0
   -2.5582   -0.0157   -1.0467 H   0  0  0  0  0  0  0  0  0  0  0  0
   -2.7656    2.0955   -0.7884 C   0  0  2  0  0  0  0  0  0  0  0  0
   -2.7966    2.7863    0.0699 H   0  0  0  0  0  0  0  0  0  0  0  0
   -3.6013    2.3535   -1.4451 H   0  0  0  0  0  0  0  0  0  0  0  0
   -1.5521    2.2074   -1.5883 N   0  0  0  0  0  0  0  0  0  0  0  0
   -0.7203    2.2694   -1.0083 H   0  0  0  0  0  0  0  0  0  0  0  0
   -1.5797    3.0544   -2.1446 H   0  0  0  0  0  0  0  0  0  0  0  0
  1  7  1  0
  2  8  1  6
  2  1  1  0
  2  5  1  0
  3  2  1  0
  3 12  1  0
  4  3  2  0
  5  9  1  1
  6  5  1  0
  6 11  1  1
  6 10  1  0
 12 13  1  0
 14 12  1  0
 14 16  1  1
 15 14  1  0
 17 14  1  0
 18 19  2  0
 18  1  1  0
 20 18  1  0
 20 21  1  1
 22 20  1  0
 23 20  1  0
 24  5  1  0
 25 26  1  1
 25  6  1  0
 27 25  1  0
 28 25  1  0
 28 29  1  1
 30 28  1  0
 31 32  1  0
 31 28  1  0
 33 31  1  0
M  END
$$$$
