MCONF/8/struc.xyz
     RDKit          3D

 33 34  0  0  0  0  0  0  0  0999 V2000
   -0.8620    2.6200    0.6610 N   0  0  0  0  0  0  0  0  0  0  0  0
   -1.8760    2.1810   -0.1620 C   0  0  0  0  0  0  0  0  0  0  0  0
   -1.4390    1.1290   -0.9320 C   0  0  1  0  0  0  0  0  0  0  0  0
   -0.0720    0.8990   -0.5570 C   0  0  0  0  0  0  0  0  0  0  0  0
    0.9020   -0.0190   -0.9780 C   0  0  0  0  0  0  0  0  0  0  0  0
    2.1560    0.0030   -0.3800 C   0  0  0  0  0  0  0  0  0  0  0  0
    2.4600    0.9380    0.6350 C   0  0  0  0  0  0  0  0  0  0  0  0
    1.5120    1.8680    1.0530 C   0  0  0  0  0  0  0  0  0  0  0  0
    0.2530    1.8410    0.4540 C   0  0  0  0  0  0  0  0  0  0  0  0
   -0.9540    3.3350    1.3580 H   0  0  0  0  0  0  0  0  0  0  0  0
   -2.8510    2.6400   -0.1200 H   0  0  0  0  0  0  0  0  0  0  0  0
    0.7120   -0.7430   -1.7600 H   0  0  0  0  0  0  0  0  0  0  0  0
    3.4350    0.9490    1.0980 H   0  0  0  0  0  0  0  0  0  0  0  0
    1.7580    2.5830    1.8280 H   0  0  0  0  0  0  0  0  0  0  0  0
    3.0490   -0.9350   -0.8390 O   0  0  0  0  0  0  0  0  0  0  0  0
    4.3470   -0.9190   -0.2700 C   0  0  2  0  0  0  0  0  0  0  0  0
    4.3170   -1.1200    0.8030 H   0  0  0  0  0  0  0  0  0  0  0  0
    4.8490    0.0350   -0.4460 H   0  0  0  0  0  0  0  0  0  0  0  0
    4.8990   -1.7120   -0.7660 H   0  0  0  0  0  0  0  0  0  0  0  0
   -2.2650    0.2710   -1.8400 C   0  0  2  0  0  0  0  0  0  0  0  0
   -2.9690   -0.8560   -1.0600 C   0  0  2  0  0  0  0  0  0  0  0  0
   -2.0540   -1.6160   -0.2270 N   0  0  0  0  0  0  0  0  0  0  0  0
   -1.8670   -1.3010    1.0960 C   0  0  0  0  0  0  0  0  0  0  0  0
   -0.6470   -1.9340    1.7320 C   0  0  2  0  0  0  0  0  0  0  0  0
   -1.6300   -0.1630   -2.6160 H   0  0  0  0  0  0  0  0  0  0  0  0
   -3.0260    0.8640   -2.3520 H   0  0  0  0  0  0  0  0  0  0  0  0
   -3.4770   -1.5320   -1.7510 H   0  0  0  0  0  0  0  0  0  0  0  0
   -3.7100   -0.4320   -0.3860 H   0  0  0  0  0  0  0  0  0  0  0  0
   -1.2980   -2.0980   -0.6820 H   0  0  0  0  0  0  0  0  0  0  0  0
   -2.6210   -0.5680    1.7190 O   0  0  0  0  0  0  0  0  0  0  0  0
    0.1680   -1.2100    1.6990 H   0  0  0  0  0  0  0  0  0  0  0  0
   -0.3260   -2.8380    1.2170 H   0  0  0  0  0  0  0  0  0  0  0  0
   -0.8710   -2.1610    2.7710 H   0  0  0  0  0  0  0  0  0  0  0  0
  1  2  1  0
  1  9  1  0
  1 10  1  0
  3  2  1  1
  2 11  1  0
  3 20  1  0
  3  4  1  0
  4  5  1  0
  4  9  1  0
  5 12  1  0
  5  6  1  0
  6 15  1  0
  6  7  1  0
  7  8  1  0
  7 13  1  0
  8  9  1  0
  8 14  1  0
 15 16  1  0
 16 19  1  6
 16 18  1  0
 16 17  1  0
 20 25  1  6
 20 26  1  0
 20 21  1  0
 21 27  1  6
 21 28  1  0
 21 22  1  0
 22 29  1  0
 22 23  1  0
 23 30  1  0
 23 24  1  0
 24 32  1  6
 24 31  1  0
 24 33  1  0
M  END
$$$$
