MCONF/2/struc.xyz
     RDKit          3D

 33 34  0  0  0  0  0  0  0  0999 V2000
   -2.7850   -2.4720   -0.0250 N   0  0  0  0  0  0  0  0  0  0  0  0
   -1.4860   -2.8860   -0.2330 C   0  0  0  0  0  0  0  0  0  0  0  0
   -0.6570   -1.7890   -0.3190 C   0  0  0  0  0  0  0  0  0  0  0  0
   -1.4950   -0.6350   -0.1530 C   0  0  0  0  0  0  0  0  0  0  0  0
   -1.2100    0.7470   -0.1510 C   0  0  0  0  0  0  0  0  0  0  0  0
   -2.2690    1.6240    0.0320 C   0  0  0  0  0  0  0  0  0  0  0  0
   -3.5930    1.1500    0.2090 C   0  0  0  0  0  0  0  0  0  0  0  0
   -3.8830   -0.2020    0.2080 C   0  0  0  0  0  0  0  0  0  0  0  0
   -2.8170   -1.0950    0.0260 C   0  0  0  0  0  0  0  0  0  0  0  0
   -3.5800   -3.0780    0.0540 H   0  0  0  0  0  0  0  0  0  0  0  0
   -1.2500   -3.9350   -0.3120 H   0  0  0  0  0  0  0  0  0  0  0  0
   -0.1940    1.0900   -0.2830 H   0  0  0  0  0  0  0  0  0  0  0  0
   -4.3760    1.8820    0.3470 H   0  0  0  0  0  0  0  0  0  0  0  0
   -4.9000   -0.5470    0.3440 H   0  0  0  0  0  0  0  0  0  0  0  0
   -2.1460    2.9870    0.0610 O   0  0  0  0  0  0  0  0  0  0  0  0
   -0.8300    3.4940   -0.1140 C   0  0  2  0  0  0  0  0  0  0  0  0
   -0.4220    3.2110   -1.0870 H   0  0  0  0  0  0  0  0  0  0  0  0
   -0.1570    3.1360    0.6670 H   0  0  0  0  0  0  0  0  0  0  0  0
   -0.9170    4.5750   -0.0560 H   0  0  0  0  0  0  0  0  0  0  0  0
    0.8250   -1.7450   -0.5120 C   0  0  2  0  0  0  0  0  0  0  0  0
    1.5390   -1.2880    0.7700 C   0  0  2  0  0  0  0  0  0  0  0  0
    2.9130   -0.8710    0.5390 N   0  0  0  0  0  0  0  0  0  0  0  0
    3.1950    0.3680    0.0520 C   0  0  0  0  0  0  0  0  0  0  0  0
    4.6570    0.6530   -0.2180 C   0  0  2  0  0  0  0  0  0  0  0  0
    1.0690   -1.0320   -1.3030 H   0  0  0  0  0  0  0  0  0  0  0  0
    1.2070   -2.7210   -0.8210 H   0  0  0  0  0  0  0  0  0  0  0  0
    1.5380   -2.0880    1.5100 H   0  0  0  0  0  0  0  0  0  0  0  0
    1.0070   -0.4380    1.1950 H   0  0  0  0  0  0  0  0  0  0  0  0
    3.6570   -1.5410    0.6160 H   0  0  0  0  0  0  0  0  0  0  0  0
    2.3240    1.2070   -0.1530 O   0  0  0  0  0  0  0  0  0  0  0  0
    4.7890    0.8090   -1.2880 H   0  0  0  0  0  0  0  0  0  0  0  0
    5.3200   -0.1460    0.1110 H   0  0  0  0  0  0  0  0  0  0  0  0
    4.9290    1.5770    0.2880 H   0  0  0  0  0  0  0  0  0  0  0  0
  1  2  1  0
  1  9  1  0
  1 10  1  0
  2  3  1  0
  2 11  1  0
  3 20  1  0
  3  4  1  0
  4  5  1  0
  4  9  1  0
  5 12  1  0
  5  6  1  0
  6 15  1  0
  6  7  1  0
  7  8  1  0
  7 13  1  0
  8  9  1  0
  8 14  1  0
 15 16  1  0
 16 17  1  6
 16 19  1  0
 16 18  1  0
 20 25  1  6
 20 26  1  0
 20 21  1  0
 21 22  1  0
 21 28  1  1
 21 27  1  0
 22 23  1  0
 22 29  1  0
 23 24  1  0
 23 30  1  0
 24 31  1  6
 24 32  1  0
 24 33  1  0
M  END
$$$$
