MCONF/30/struc.xyz
     RDKit          3D

 33 34  0  0  0  0  0  0  0  0999 V2000
    0.5310    2.7240    0.5990 N   0  0  0  0  0  0  0  0  0  0  0  0
    1.6280    2.2930   -0.1150 C   0  0  0  0  0  0  0  0  0  0  0  0
    1.3210    1.1420   -0.8050 C   0  0  2  0  0  0  0  0  0  0  0  0
   -0.0580    0.8540   -0.5160 C   0  0  0  0  0  0  0  0  0  0  0  0
   -0.9370   -0.1620   -0.9180 C   0  0  0  0  0  0  0  0  0  0  0  0
   -2.2450   -0.1480   -0.4490 C   0  0  0  0  0  0  0  0  0  0  0  0
   -2.6910    0.8680    0.4270 C   0  0  0  0  0  0  0  0  0  0  0  0
   -1.8340    1.8820    0.8390 C   0  0  0  0  0  0  0  0  0  0  0  0
   -0.5230    1.8670    0.3610 C   0  0  0  0  0  0  0  0  0  0  0  0
    0.4820    3.5750    1.1290 H   0  0  0  0  0  0  0  0  0  0  0  0
    2.5570    2.8410   -0.0760 H   0  0  0  0  0  0  0  0  0  0  0  0
   -0.6280   -0.9650   -1.5720 H   0  0  0  0  0  0  0  0  0  0  0  0
   -3.7070    0.8700    0.7910 H   0  0  0  0  0  0  0  0  0  0  0  0
   -2.1860    2.6540    1.5110 H   0  0  0  0  0  0  0  0  0  0  0  0
   -3.0460   -1.1650   -0.8980 O   0  0  0  0  0  0  0  0  0  0  0  0
   -4.3380   -1.2670   -0.3250 C   0  0  1  0  0  0  0  0  0  0  0  0
   -4.2840   -1.3750    0.7610 H   0  0  0  0  0  0  0  0  0  0  0  0
   -4.9580   -0.4030   -0.5740 H   0  0  0  0  0  0  0  0  0  0  0  0
   -4.7820   -2.1600   -0.7530 H   0  0  0  0  0  0  0  0  0  0  0  0
    2.2760    0.3200   -1.6130 C   0  0  1  0  0  0  0  0  0  0  0  0
    2.9090   -0.8310   -0.8100 C   0  0  1  0  0  0  0  0  0  0  0  0
    1.9630   -1.8450   -0.3890 N   0  0  0  0  0  0  0  0  0  0  0  0
    1.3070   -1.9590    0.8090 C   0  0  0  0  0  0  0  0  0  0  0  0
    1.7420   -1.0320    1.9260 C   0  0  1  0  0  0  0  0  0  0  0  0
    1.7710   -0.0960   -2.4890 H   0  0  0  0  0  0  0  0  0  0  0  0
    3.0850    0.9540   -1.9870 H   0  0  0  0  0  0  0  0  0  0  0  0
    3.6790   -1.3120   -1.4170 H   0  0  0  0  0  0  0  0  0  0  0  0
    3.4030   -0.4260    0.0710 H   0  0  0  0  0  0  0  0  0  0  0  0
    1.6010   -2.4690   -1.0940 H   0  0  0  0  0  0  0  0  0  0  0  0
    0.4310   -2.7970    0.9650 O   0  0  0  0  0  0  0  0  0  0  0  0
    2.8010   -1.1620    2.1530 H   0  0  0  0  0  0  0  0  0  0  0  0
    1.5750    0.0100    1.6560 H   0  0  0  0  0  0  0  0  0  0  0  0
    1.1540   -1.2800    2.8030 H   0  0  0  0  0  0  0  0  0  0  0  0
  1  2  1  0
  1  9  1  0
  1 10  1  0
  3  2  1  1
  2 11  1  0
  3 20  1  0
  3  4  1  0
  4  5  1  0
  4  9  1  0
  5 12  1  0
  5  6  1  0
  6 15  1  0
  6  7  1  0
  7 13  1  0
  7  8  1  0
  8  9  1  0
  8 14  1  0
 15 16  1  0
 16 19  1  6
 16 18  1  0
 16 17  1  0
 20 25  1  6
 20 26  1  0
 20 21  1  0
 21 27  1  6
 21 22  1  0
 21 28  1  0
 22 29  1  0
 22 23  1  0
 23 30  1  0
 23 24  1  0
 24 32  1  6
 24 31  1  0
 24 33  1  0
M  END
$$$$
