MCONF/14/struc.xyz
     RDKit          3D

 33 34  0  0  0  0  0  0  0  0999 V2000
    1.4960   -3.0570   -0.0400 N   0  0  0  0  0  0  0  0  0  0  0  0
    0.1920   -2.7320    0.2660 C   0  0  0  0  0  0  0  0  0  0  0  0
    0.0710   -1.3670    0.4050 C   0  0  1  0  0  0  0  0  0  0  0  0
    1.3780   -0.8210    0.1680 C   0  0  0  0  0  0  0  0  0  0  0  0
    1.8840    0.4980    0.1750 C   0  0  0  0  0  0  0  0  0  0  0  0
    3.2320    0.6850   -0.0890 C   0  0  0  0  0  0  0  0  0  0  0  0
    4.0840   -0.4140   -0.3620 C   0  0  0  0  0  0  0  0  0  0  0  0
    3.6070   -1.7100   -0.3710 C   0  0  0  0  0  0  0  0  0  0  0  0
    2.2440   -1.9040   -0.1030 C   0  0  0  0  0  0  0  0  0  0  0  0
    1.8450   -3.9880   -0.1750 H   0  0  0  0  0  0  0  0  0  0  0  0
   -0.5590   -3.4980    0.3640 H   0  0  0  0  0  0  0  0  0  0  0  0
    1.2270    1.3280    0.3900 H   0  0  0  0  0  0  0  0  0  0  0  0
    5.1260   -0.2050   -0.5610 H   0  0  0  0  0  0  0  0  0  0  0  0
    4.2700   -2.5400   -0.5780 H   0  0  0  0  0  0  0  0  0  0  0  0
    3.8610    1.9030   -0.1150 O   0  0  0  0  0  0  0  0  0  0  0  0
    3.0510    3.0320    0.1580 C   0  0  2  0  0  0  0  0  0  0  0  0
    2.6150    2.9770    1.1580 H   0  0  0  0  0  0  0  0  0  0  0  0
    2.2510    3.1340   -0.5800 H   0  0  0  0  0  0  0  0  0  0  0  0
    3.7080    3.8950    0.0980 H   0  0  0  0  0  0  0  0  0  0  0  0
   -1.1850   -0.6030    0.6810 C   0  0  2  0  0  0  0  0  0  0  0  0
   -1.7590    0.0150   -0.6020 C   0  0  2  0  0  0  0  0  0  0  0  0
   -2.9750    0.7780   -0.3690 N   0  0  0  0  0  0  0  0  0  0  0  0
   -4.1790    0.1590   -0.2080 C   0  0  0  0  0  0  0  0  0  0  0  0
   -5.3480    1.0710    0.1040 C   0  0  2  0  0  0  0  0  0  0  0  0
   -0.9920    0.1940    1.4050 H   0  0  0  0  0  0  0  0  0  0  0  0
   -1.9420   -1.2590    1.1110 H   0  0  0  0  0  0  0  0  0  0  0  0
   -1.9940   -0.7820   -1.3060 H   0  0  0  0  0  0  0  0  0  0  0  0
   -1.0260    0.6730   -1.0680 H   0  0  0  0  0  0  0  0  0  0  0  0
   -2.9130    1.7640   -0.1960 H   0  0  0  0  0  0  0  0  0  0  0  0
   -4.3120   -1.0530   -0.3130 O   0  0  0  0  0  0  0  0  0  0  0  0
   -6.1460    0.8640   -0.6050 H   0  0  0  0  0  0  0  0  0  0  0  0
   -5.0940    2.1290    0.0610 H   0  0  0  0  0  0  0  0  0  0  0  0
   -5.7190    0.8330    1.1000 H   0  0  0  0  0  0  0  0  0  0  0  0
  1 10  1  0
  1  9  1  0
  1  2  1  0
  2 11  1  0
  3  2  1  6
  3  4  1  0
  3 20  1  0
  4  9  1  0
  4  5  1  0
  5  6  1  0
  5 12  1  0
  6  7  1  0
  6 15  1  0
  7 13  1  0
  7  8  1  0
  8 14  1  0
  8  9  1  0
 15 16  1  0
 16 18  1  6
 16 19  1  0
 16 17  1  0
 20 21  1  0
 20 26  1  1
 20 25  1  0
 21 27  1  6
 21 28  1  0
 21 22  1  0
 22 23  1  0
 22 29  1  0
 23 30  1  0
 23 24  1  0
 24 31  1  6
 24 32  1  0
 24 33  1  0
M  END
$$$$
