 energy: -42.456238735843 gnorm: 0.000030362758 xtb: 6.5.1 (9af7eec)
     RDKit          3D

 26 26  0  0  0  0  0  0  0  0999 V2000
    2.0770    0.3947    0.5790 C   0  0  1  0  0  0  0  0  0  0  0  0
    1.1982    0.5201   -0.6790 C   0  0  1  0  0  0  0  0  0  0  0  0
    1.1674   -0.8147   -1.4568 C   0  0  2  0  0  0  0  0  0  0  0  0
    0.2645   -0.7523   -2.7026 C   0  0  2  0  0  0  0  0  0  0  0  0
   -0.9937   -1.5355   -2.2661 C   0  0  2  0  0  0  0  0  0  0  0  0
   -1.9718   -0.7013   -1.7231 O   0  0  0  0  0  0  0  0  0  0  0  0
   -0.3987   -2.5217   -1.2522 C   0  0  1  0  0  0  0  0  0  0  0  0
    1.3908   -0.3202    1.5726 O   0  0  0  0  0  0  0  0  0  0  0  0
    0.9546   -1.3447   -3.7765 O   0  0  0  0  0  0  0  0  0  0  0  0
   -0.1038    0.8887   -0.2839 O   0  0  0  0  0  0  0  0  0  0  0  0
    0.6545   -1.8322   -0.6042 O   0  0  0  0  0  0  0  0  0  0  0  0
    0.4186   -1.0452   -5.0438 C   0  0  1  0  0  0  0  0  0  0  0  0
    3.0335   -0.0768    0.3242 H   0  0  0  0  0  0  0  0  0  0  0  0
    2.2670    1.3863    0.9975 H   0  0  0  0  0  0  0  0  0  0  0  0
    1.5870    1.3019   -1.3397 H   0  0  0  0  0  0  0  0  0  0  0  0
    2.1840   -1.0808   -1.7758 H   0  0  0  0  0  0  0  0  0  0  0  0
   -0.0048    0.2851   -2.9471 H   0  0  0  0  0  0  0  0  0  0  0  0
   -1.4589   -2.0631   -3.1013 H   0  0  0  0  0  0  0  0  0  0  0  0
   -1.5326   -0.0677   -1.1251 H   0  0  0  0  0  0  0  0  0  0  0  0
   -1.1220   -2.8250   -0.4939 H   0  0  0  0  0  0  0  0  0  0  0  0
   -0.0036   -3.4042   -1.7701 H   0  0  0  0  0  0  0  0  0  0  0  0
    1.1829   -1.1956    1.2090 H   0  0  0  0  0  0  0  0  0  0  0  0
   -0.1995    0.5695    0.6317 H   0  0  0  0  0  0  0  0  0  0  0  0
    1.0642   -1.5373   -5.7679 H   0  0  0  0  0  0  0  0  0  0  0  0
   -0.6044   -1.4184   -5.1549 H   0  0  0  0  0  0  0  0  0  0  0  0
    0.4207    0.0364   -5.2237 H   0  0  0  0  0  0  0  0  0  0  0  0
  1 13  1  6
  1  2  1  0
  1  8  1  0
  1 14  1  0
  2 10  1  0
  2  3  1  0
  2 15  1  6
  3 16  1  6
  3 11  1  0
  3  4  1  0
  4  9  1  0
  4  5  1  0
  4 17  1  6
  5  7  1  0
  5 18  1  6
  5  6  1  0
  6 19  1  0
  7 21  1  6
  7 11  1  0
  7 20  1  0
  8 22  1  0
  9 12  1  0
 10 23  1  0
 12 25  1  1
 12 26  1  0
 12 24  1  0
M  END
$$$$
