 energy: -42.452254628905 gnorm: 0.000034874236 xtb: 6.5.1 (9af7eec)
     RDKit          3D

 26 26  0  0  0  0  0  0  0  0999 V2000
    1.6540   -0.8366    0.9547 C   0  0  1  0  0  0  0  0  0  0  0  0
    2.1577    0.3595    0.1352 C   0  0  1  0  0  0  0  0  0  0  0  0
    1.9382    1.6839    0.8917 C   0  0  2  0  0  0  0  0  0  0  0  0
    2.1185    2.9308    0.0032 C   0  0  2  0  0  0  0  0  0  0  0  0
    3.5204    3.4449    0.3999 C   0  0  2  0  0  0  0  0  0  0  0  0
    4.5272    2.9151   -0.4117 O   0  0  0  0  0  0  0  0  0  0  0  0
    3.5973    2.9850    1.8619 C   0  0  1  0  0  0  0  0  0  0  0  0
    1.8829   -2.0437    0.2792 O   0  0  0  0  0  0  0  0  0  0  0  0
    1.0841    3.8353    0.3028 O   0  0  0  0  0  0  0  0  0  0  0  0
    3.5366    0.1966   -0.1322 O   0  0  0  0  0  0  0  0  0  0  0  0
    2.9267    1.7387    1.9136 O   0  0  0  0  0  0  0  0  0  0  0  0
    0.8989    4.8459   -0.6606 C   0  0  1  0  0  0  0  0  0  0  0  0
    2.1623   -0.8299    1.9314 H   0  0  0  0  0  0  0  0  0  0  0  0
    0.5775   -0.7618    1.1157 H   0  0  0  0  0  0  0  0  0  0  0  0
    1.6576    0.3742   -0.8371 H   0  0  0  0  0  0  0  0  0  0  0  0
    0.9369    1.7121    1.3370 H   0  0  0  0  0  0  0  0  0  0  0  0
    2.0995    2.6718   -1.0655 H   0  0  0  0  0  0  0  0  0  0  0  0
    3.5990    4.5305    0.3205 H   0  0  0  0  0  0  0  0  0  0  0  0
    4.3889    1.9552   -0.4971 H   0  0  0  0  0  0  0  0  0  0  0  0
    4.6225    2.8328    2.2023 H   0  0  0  0  0  0  0  0  0  0  0  0
    3.0915    3.7114    2.5090 H   0  0  0  0  0  0  0  0  0  0  0  0
    2.7703   -2.0012   -0.1027 H   0  0  0  0  0  0  0  0  0  0  0  0
    3.9783    0.2688    0.7305 H   0  0  0  0  0  0  0  0  0  0  0  0
    0.0570    5.4409   -0.3139 H   0  0  0  0  0  0  0  0  0  0  0  0
    1.7815    5.4860   -0.7586 H   0  0  0  0  0  0  0  0  0  0  0  0
    0.6654    4.4140   -1.6408 H   0  0  0  0  0  0  0  0  0  0  0  0
  1 13  1  1
  1  2  1  0
  1  8  1  0
  1 14  1  0
  2 10  1  0
  2  3  1  0
  2 15  1  6
  3 16  1  1
  3 11  1  0
  3  4  1  0
  4  9  1  0
  4  5  1  0
  4 17  1  6
  5  7  1  0
  5 18  1  1
  5  6  1  0
  6 19  1  0
  7 21  1  1
  7 11  1  0
  7 20  1  0
  8 22  1  0
  9 12  1  0
 10 23  1  0
 12 25  1  6
 12 26  1  0
 12 24  1  0
M  END
$$$$
