 energy: -42.451687701494 gnorm: 0.000038517653 xtb: 6.5.1 (9af7eec)
     RDKit          3D

 26 26  0  0  0  0  0  0  0  0999 V2000
    2.9383    0.0911    0.1587 C   0  0  1  0  0  0  0  0  0  0  0  0
    1.4768    0.4623    0.4476 C   0  0  1  0  0  0  0  0  0  0  0  0
    0.8617    1.2562   -0.7223 C   0  0  2  0  0  0  0  0  0  0  0  0
   -0.4708    1.9539   -0.3590 C   0  0  2  0  0  0  0  0  0  0  0  0
   -1.5322    1.0232   -0.9765 C   0  0  2  0  0  0  0  0  0  0  0  0
   -1.9703    0.0433   -0.0841 O   0  0  0  0  0  0  0  0  0  0  0  0
   -0.7655    0.4617   -2.1808 C   0  0  1  0  0  0  0  0  0  0  0  0
    3.4879   -0.6526    1.2119 O   0  0  0  0  0  0  0  0  0  0  0  0
   -0.5894    3.2282   -0.9393 O   0  0  0  0  0  0  0  0  0  0  0  0
    0.7281   -0.7172    0.6596 O   0  0  0  0  0  0  0  0  0  0  0  0
    0.5786    0.3169   -1.7539 O   0  0  0  0  0  0  0  0  0  0  0  0
    0.0490    4.2551   -0.2188 C   0  0  1  0  0  0  0  0  0  0  0  0
    2.9746   -0.4755   -0.7848 H   0  0  0  0  0  0  0  0  0  0  0  0
    3.5484    0.9901    0.0546 H   0  0  0  0  0  0  0  0  0  0  0  0
    1.4213    1.0299    1.3811 H   0  0  0  0  0  0  0  0  0  0  0  0
    1.5813    1.9962   -1.0941 H   0  0  0  0  0  0  0  0  0  0  0  0
   -0.6036    2.0177    0.7303 H   0  0  0  0  0  0  0  0  0  0  0  0
   -2.4126    1.5880   -1.2852 H   0  0  0  0  0  0  0  0  0  0  0  0
   -1.1959   -0.3698    0.3373 H   0  0  0  0  0  0  0  0  0  0  0  0
   -1.1288   -0.5189   -2.4913 H   0  0  0  0  0  0  0  0  0  0  0  0
   -0.8199    1.1659   -3.0187 H   0  0  0  0  0  0  0  0  0  0  0  0
    2.8270   -1.3030    1.4865 H   0  0  0  0  0  0  0  0  0  0  0  0
    0.6995   -1.1655   -0.2023 H   0  0  0  0  0  0  0  0  0  0  0  0
   -0.1535    5.1754   -0.7623 H   0  0  0  0  0  0  0  0  0  0  0  0
   -0.3566    4.3321    0.7969 H   0  0  0  0  0  0  0  0  0  0  0  0
    1.1321    4.1006   -0.1560 H   0  0  0  0  0  0  0  0  0  0  0  0
  1 13  1  6
  1  2  1  0
  1  8  1  0
  1 14  1  0
  2 10  1  0
  2  3  1  0
  2 15  1  1
  3 16  1  6
  3 11  1  0
  3  4  1  0
  4  9  1  0
  4  5  1  0
  4 17  1  1
  5  7  1  0
  5 18  1  6
  5  6  1  0
  6 19  1  0
  7 21  1  6
  7 11  1  0
  7 20  1  0
  8 22  1  0
  9 12  1  0
 10 23  1  0
 12 25  1  1
 12 26  1  0
 12 24  1  0
M  END
$$$$
