-14.70895911
     RDKit          3D

 17 16  0  0  0  0  0  0  0  0999 V2000
    2.1362   -0.8182   -0.3920 Si  0  0  1  0  0  4  0  0  0  0  0  0
   -0.0462   -0.8621   -1.1923 Si  0  0  1  0  0  4  0  0  0  0  0  0
   -1.6984   -0.6930    0.4341 Si  0  0  2  0  0  4  0  0  0  0  0  0
   -3.0480    1.1814    0.3463 Si  0  0  1  0  0  4  0  0  0  0  0  0
    2.3387   -1.9871    0.4816 H   0  0  0  0  0  0  0  0  0  0  0  0
    3.1149   -1.0416   -1.4691 H   0  0  0  0  0  0  0  0  0  0  0  0
    2.6694    1.1117    0.7649 Si  0  0  1  0  0  4  0  0  0  0  0  0
   -0.2147    0.2624   -2.1323 H   0  0  0  0  0  0  0  0  0  0  0  0
   -0.2835   -2.0365   -2.0463 H   0  0  0  0  0  0  0  0  0  0  0  0
   -1.0319   -0.7456    1.7499 H   0  0  0  0  0  0  0  0  0  0  0  0
   -2.5315   -1.9066    0.4470 H   0  0  0  0  0  0  0  0  0  0  0  0
   -4.0687    1.2595    1.3942 H   0  0  0  0  0  0  0  0  0  0  0  0
   -2.2452    2.4025    0.4615 H   0  0  0  0  0  0  0  0  0  0  0  0
   -3.7626    1.2708   -0.9299 H   0  0  0  0  0  0  0  0  0  0  0  0
    2.6461    2.2903   -0.1055 H   0  0  0  0  0  0  0  0  0  0  0  0
    1.6916    1.3668    1.8279 H   0  0  0  0  0  0  0  0  0  0  0  0
    3.9845    1.1026    1.4084 H   0  0  0  0  0  0  0  0  0  0  0  0
  1  5  1  1
  1  7  1  0
  2  1  1  0
  2  3  1  0
  3 11  1  1
  3 10  1  0
  4  3  1  0
  4 13  1  1
  4 12  1  0
  6  1  1  0
  7 17  1  1
  7 16  1  0
  2  8  1  6
  9  2  1  0
 14  4  1  0
 15  7  1  0
M  END
$$$$
