-14.70887239
     RDKit          3D

 17 16  0  0  0  0  0  0  0  0999 V2000
    1.6771    0.2578   -0.9062 Si  0  0  1  0  0  4  0  0  0  0  0  0
    0.0078   -1.2523   -0.3285 Si  0  0  1  0  0  4  0  0  0  0  0  0
   -1.7440   -0.3562    0.9080 Si  0  0  2  0  0  4  0  0  0  0  0  0
   -3.3411    0.7978   -0.3017 Si  0  0  1  0  0  4  0  0  0  0  0  0
    2.2302   -0.0583   -2.2331 H   0  0  0  0  0  0  0  0  0  0  0  0
    1.0313    1.5660   -1.1262 H   0  0  0  0  0  0  0  0  0  0  0  0
    3.3982    0.5072    0.6172 Si  0  0  1  0  0  4  0  0  0  0  0  0
   -0.5516   -1.8958   -1.5297 H   0  0  0  0  0  0  0  0  0  0  0  0
    0.6288   -2.3821    0.3846 H   0  0  0  0  0  0  0  0  0  0  0  0
   -1.1571    0.5424    1.9199 H   0  0  0  0  0  0  0  0  0  0  0  0
   -2.3934   -1.3904    1.7300 H   0  0  0  0  0  0  0  0  0  0  0  0
   -2.7319    1.9037   -1.0463 H   0  0  0  0  0  0  0  0  0  0  0  0
   -3.9927   -0.0612   -1.2941 H   0  0  0  0  0  0  0  0  0  0  0  0
   -4.4153    1.3861    0.5013 H   0  0  0  0  0  0  0  0  0  0  0  0
    4.4140    1.4940    0.2437 H   0  0  0  0  0  0  0  0  0  0  0  0
    2.8815    0.9246    1.9240 H   0  0  0  0  0  0  0  0  0  0  0  0
    4.1115   -0.7538    0.8366 H   0  0  0  0  0  0  0  0  0  0  0  0
  1  2  1  0
  1  7  1  0
  2  9  1  1
  2  3  1  0
  3 11  1  1
  3 10  1  0
  4 14  1  1
  4  3  1  0
  1  5  1  6
  6  1  1  0
  7 17  1  1
  7 16  1  0
  8  2  1  0
 12  4  1  0
 13  4  1  0
 15  7  1  0
M  END
$$$$
