-14.70924780
     RDKit          3D

 17 16  0  0  0  0  0  0  0  0999 V2000
    2.1197   -0.8060    0.5822 Si  0  0  1  0  0  4  0  0  0  0  0  0
   -0.0394   -0.0985    1.0775 Si  0  0  1  0  0  4  0  0  0  0  0  0
   -1.6041   -0.2041   -0.6345 Si  0  0  2  0  0  4  0  0  0  0  0  0
   -3.7741    0.4616   -0.1871 Si  0  0  1  0  0  4  0  0  0  0  0  0
    2.8921   -1.0685    1.8092 H   0  0  0  0  0  0  0  0  0  0  0  0
    2.0319   -2.1397   -0.0390 H   0  0  0  0  0  0  0  0  0  0  0  0
    3.3136    0.6094   -0.8035 Si  0  0  1  0  0  4  0  0  0  0  0  0
   -0.5737   -0.8151    2.2482 H   0  0  0  0  0  0  0  0  0  0  0  0
    0.0295    1.2954    1.5539 H   0  0  0  0  0  0  0  0  0  0  0  0
   -1.6123   -1.5794   -1.1646 H   0  0  0  0  0  0  0  0  0  0  0  0
   -1.0762    0.5777   -1.7680 H   0  0  0  0  0  0  0  0  0  0  0  0
   -3.8169    1.8496    0.2824 H   0  0  0  0  0  0  0  0  0  0  0  0
   -4.6878    0.3873   -1.3312 H   0  0  0  0  0  0  0  0  0  0  0  0
   -4.3758   -0.3558    0.8705 H   0  0  0  0  0  0  0  0  0  0  0  0
    3.5064    1.9284   -0.1943 H   0  0  0  0  0  0  0  0  0  0  0  0
    4.6482    0.1298   -1.1687 H   0  0  0  0  0  0  0  0  0  0  0  0
    2.5985    0.8356   -2.0628 H   0  0  0  0  0  0  0  0  0  0  0  0
  1  2  1  0
  1  5  1  1
  2  9  1  1
  2  8  1  0
  3  4  1  0
  3  2  1  0
  4 12  1  1
  4 14  1  0
  6  1  1  0
  7 15  1  1
  7  1  1  0
  3 10  1  6
 11  3  1  0
 13  4  1  0
 16  7  1  0
 17  7  1  0
M  END
$$$$
