-14.70923486
     RDKit          3D

 17 16  0  0  0  0  0  0  0  0999 V2000
    2.1062   -0.7957   -0.5657 Si  0  0  1  0  0  4  0  0  0  0  0  0
   -0.0335   -0.0156   -1.0363 Si  0  0  1  0  0  4  0  0  0  0  0  0
   -1.6481   -0.2812    0.6107 Si  0  0  2  0  0  4  0  0  0  0  0  0
   -3.7947    0.4672    0.1810 Si  0  0  1  0  0  4  0  0  0  0  0  0
    1.9768   -2.1157    0.0775 H   0  0  0  0  0  0  0  0  0  0  0  0
    2.8450   -1.1074   -1.8019 H   0  0  0  0  0  0  0  0  0  0  0  0
    3.3839    0.5882    0.7766 Si  0  0  1  0  0  4  0  0  0  0  0  0
    0.0617    1.4195   -1.3628 H   0  0  0  0  0  0  0  0  0  0  0  0
   -0.5413   -0.6000   -2.2893 H   0  0  0  0  0  0  0  0  0  0  0  0
   -1.1430    0.3631    1.8372 H   0  0  0  0  0  0  0  0  0  0  0  0
   -1.6902   -1.7058    0.9861 H   0  0  0  0  0  0  0  0  0  0  0  0
   -3.8199    1.9161   -0.0392 H   0  0  0  0  0  0  0  0  0  0  0  0
   -4.3397   -0.1493   -1.0321 H   0  0  0  0  0  0  0  0  0  0  0  0
   -4.7634    0.1978    1.2479 H   0  0  0  0  0  0  0  0  0  0  0  0
    2.6495    0.9639    1.9886 H   0  0  0  0  0  0  0  0  0  0  0  0
    4.6504    0.0075    1.2276 H   0  0  0  0  0  0  0  0  0  0  0  0
    3.7286    1.8404    0.0979 H   0  0  0  0  0  0  0  0  0  0  0  0
  1  5  1  1
  1  7  1  0
  2  1  1  0
  2  3  1  0
  3 11  1  1
  3 10  1  0
  4  3  1  0
  4 14  1  1
  6  1  1  0
  7 16  1  1
  7 15  1  0
  2  8  1  6
  9  2  1  0
 12  4  1  0
 13  4  1  0
 17  7  1  0
M  END
$$$$
