-51.92274403
     RDKit          3D

 33 33  0  0  1  0  0  0  0  0999 V2000
   -1.2768   -0.6780    0.1430 N   0  0  0  0  0  0  0  0  0  0  0  0
   -0.8398    0.6356    0.5697 C   0  0  2  0  0  0  0  0  0  0  0  0
   -2.0033    1.6426    0.6679 C   0  0  0  0  0  0  0  0  0  0  0  0
   -1.8609    2.8269    0.4541 O   0  0  0  0  0  0  0  0  0  0  0  0
    0.3139    1.1999   -0.2813 C   0  0  1  0  0  0  0  0  0  0  0  0
    1.5300    0.3301   -0.1477 C   0  0  0  0  0  0  0  0  0  0  0  0
    1.7379   -0.7376   -1.0098 C   0  0  0  0  0  0  0  0  0  0  0  0
    2.4438    0.5427    0.8787 C   0  0  0  0  0  0  0  0  0  0  0  0
    2.8306   -1.5714   -0.8569 C   0  0  0  0  0  0  0  0  0  0  0  0
    3.5392   -0.2806    1.0400 C   0  0  0  0  0  0  0  0  0  0  0  0
    3.7393   -1.3482    0.1698 C   0  0  0  0  0  0  0  0  0  0  0  0
    4.8287   -2.1405    0.3598 O   0  0  0  0  0  0  0  0  0  0  0  0
   -0.9075   -1.4613    0.6652 H   0  0  0  0  0  0  0  0  0  0  0  0
   -0.4683    0.5215    1.5967 H   0  0  0  0  0  0  0  0  0  0  0  0
    0.0026    1.2602   -1.3232 H   0  0  0  0  0  0  0  0  0  0  0  0
    0.5159    2.2113    0.0728 H   0  0  0  0  0  0  0  0  0  0  0  0
    1.0400   -0.9270   -1.8123 H   0  0  0  0  0  0  0  0  0  0  0  0
    2.2970    1.3706    1.5574 H   0  0  0  0  0  0  0  0  0  0  0  0
    2.9788   -2.3993   -1.5376 H   0  0  0  0  0  0  0  0  0  0  0  0
    4.2531   -0.1154    1.8311 H   0  0  0  0  0  0  0  0  0  0  0  0
    4.8499   -2.8339   -0.3107 H   0  0  0  0  0  0  0  0  0  0  0  0
   -3.1606    1.0864    1.0747 N   0  0  0  0  0  0  0  0  0  0  0  0
   -3.2086    0.0855    1.1879 H   0  0  0  0  0  0  0  0  0  0  0  0
   -4.3767    1.8454    1.2349 C   0  0  1  0  0  0  0  0  0  0  0  0
   -4.1369    2.8910    1.0493 H   0  0  0  0  0  0  0  0  0  0  0  0
   -5.1366    1.5157    0.5241 H   0  0  0  0  0  0  0  0  0  0  0  0
   -4.7635    1.7363    2.2491 H   0  0  0  0  0  0  0  0  0  0  0  0
   -1.8578   -1.0610   -1.0280 C   0  0  0  0  0  0  0  0  0  0  0  0
   -2.0185   -2.2430   -1.2537 O   0  0  0  0  0  0  0  0  0  0  0  0
   -2.3119    0.0119   -1.9877 C   0  0  2  0  0  0  0  0  0  0  0  0
   -3.2732   -0.2828   -2.4029 H   0  0  0  0  0  0  0  0  0  0  0  0
   -1.6028    0.0561   -2.8133 H   0  0  0  0  0  0  0  0  0  0  0  0
   -2.3908    0.9925   -1.5331 H   0  0  0  0  0  0  0  0  0  0  0  0
  1  2  1  0
  1 13  1  0
  2  3  1  0
  2 14  1  1
  3 22  1  0
  4  3  2  0
  5  6  1  0
  5 16  1  1
  5  2  1  0
  6  8  2  0
  7  9  2  0
  7  6  1  0
  8 10  1  0
  8 18  1  0
  9 11  1  0
 10 20  1  0
 11 12  1  0
 11 10  2  0
 15  5  1  0
 17  7  1  0
 19  9  1  0
 21 12  1  0
 22 23  1  0
 22 24  1  0
 24 27  1  1
 25 24  1  0
 26 24  1  0
 28  1  1  0
 29 28  2  0
 30 33  1  1
 30 28  1  0
 31 30  1  0
 32 30  1  0
M  END
$$$$
