-51.92249085
     RDKit          3D

 33 33  0  0  1  0  0  0  0  0999 V2000
   -2.2268   -0.4643   -0.5517 N   0  0  0  0  0  0  0  0  0  0  0  0
   -1.0626    0.3636   -0.3427 C   0  0  2  0  0  0  0  0  0  0  0  0
   -1.4464    1.8553   -0.4154 C   0  0  0  0  0  0  0  0  0  0  0  0
   -0.6957    2.7015   -0.8494 O   0  0  0  0  0  0  0  0  0  0  0  0
    0.0825    0.0388   -1.3330 C   0  0  1  0  0  0  0  0  0  0  0  0
    1.3601   -0.2722   -0.6078 C   0  0  0  0  0  0  0  0  0  0  0  0
    2.0629    0.7511    0.0158 C   0  0  0  0  0  0  0  0  0  0  0  0
    1.8414   -1.5711   -0.5073 C   0  0  0  0  0  0  0  0  0  0  0  0
    3.2211    0.4857    0.7207 C   0  0  0  0  0  0  0  0  0  0  0  0
    2.9984   -1.8478    0.1950 C   0  0  0  0  0  0  0  0  0  0  0  0
    3.6967   -0.8174    0.8151 C   0  0  0  0  0  0  0  0  0  0  0  0
    4.8320   -1.1267    1.4993 O   0  0  0  0  0  0  0  0  0  0  0  0
   -2.7572   -0.2729   -1.3929 H   0  0  0  0  0  0  0  0  0  0  0  0
   -0.7037    0.2028    0.6796 H   0  0  0  0  0  0  0  0  0  0  0  0
   -0.2152   -0.8086   -1.9523 H   0  0  0  0  0  0  0  0  0  0  0  0
    0.2342    0.9082   -1.9764 H   0  0  0  0  0  0  0  0  0  0  0  0
    1.6950    1.7635   -0.0606 H   0  0  0  0  0  0  0  0  0  0  0  0
    1.3111   -2.3793   -0.9913 H   0  0  0  0  0  0  0  0  0  0  0  0
    3.7634    1.2915    1.1982 H   0  0  0  0  0  0  0  0  0  0  0  0
    3.3789   -2.8537    0.2729 H   0  0  0  0  0  0  0  0  0  0  0  0
    5.2219   -0.3233    1.8643 H   0  0  0  0  0  0  0  0  0  0  0  0
   -2.6690    2.1204    0.0800 N   0  0  0  0  0  0  0  0  0  0  0  0
   -3.2395    1.3572    0.4109 H   0  0  0  0  0  0  0  0  0  0  0  0
   -3.2208    3.4523    0.1281 C   0  0  1  0  0  0  0  0  0  0  0  0
   -2.4722    4.1316   -0.2763 H   0  0  0  0  0  0  0  0  0  0  0  0
   -4.1301    3.5160   -0.4721 H   0  0  0  0  0  0  0  0  0  0  0  0
   -3.4503    3.7362    1.1565 H   0  0  0  0  0  0  0  0  0  0  0  0
   -2.5360   -1.6514    0.0386 C   0  0  0  0  0  0  0  0  0  0  0  0
   -3.4894   -2.2914   -0.3499 O   0  0  0  0  0  0  0  0  0  0  0  0
   -1.6675   -2.0754    1.1989 C   0  0  2  0  0  0  0  0  0  0  0  0
   -0.6281   -2.1579    0.8898 H   0  0  0  0  0  0  0  0  0  0  0  0
   -2.0168   -3.0410    1.5530 H   0  0  0  0  0  0  0  0  0  0  0  0
   -1.7380   -1.3549    2.0114 H   0  0  0  0  0  0  0  0  0  0  0  0
  1  2  1  0
  1 28  1  0
  2 14  1  1
  3  2  1  0
  3 22  1  0
  4  3  2  0
  5  6  1  0
  5  2  1  0
  6  8  2  0
  6  7  1  0
  7  9  2  0
  8 10  1  0
  9 11  1  0
  9 19  1  0
 10 20  1  0
 10 11  2  0
 11 12  1  0
 12 21  1  0
 13  1  1  0
  5 15  1  6
 16  5  1  0
 17  7  1  0
 18  8  1  0
 22 24  1  0
 22 23  1  0
 24 27  1  1
 25 24  1  0
 26 24  1  0
 28 30  1  0
 29 28  2  0
 30 32  1  1
 30 33  1  0
 31 30  1  0
M  END
$$$$
