-51.91835028
     RDKit          3D

 33 33  0  0  1  0  0  0  0  0999 V2000
   -2.4981   -0.8199    0.9633 N   0  0  0  0  0  0  0  0  0  0  0  0
   -1.1863   -0.2850    0.6713 C   0  0  2  0  0  0  0  0  0  0  0  0
   -1.2320    1.0903   -0.0191 C   0  0  0  0  0  0  0  0  0  0  0  0
   -2.0706    1.4053   -0.8346 O   0  0  0  0  0  0  0  0  0  0  0  0
   -0.3061   -1.2324   -0.1793 C   0  0  1  0  0  0  0  0  0  0  0  0
    1.1303   -0.7956   -0.1300 C   0  0  0  0  0  0  0  0  0  0  0  0
    1.6838   -0.0561   -1.1665 C   0  0  0  0  0  0  0  0  0  0  0  0
    1.9237   -1.0854    0.9758 C   0  0  0  0  0  0  0  0  0  0  0  0
    2.9930    0.3856   -1.1046 C   0  0  0  0  0  0  0  0  0  0  0  0
    3.2310   -0.6498    1.0495 C   0  0  0  0  0  0  0  0  0  0  0  0
    3.7762    0.0928    0.0055 C   0  0  0  0  0  0  0  0  0  0  0  0
    5.0651    0.5080    0.1160 O   0  0  0  0  0  0  0  0  0  0  0  0
   -2.7904   -0.7265    1.9269 H   0  0  0  0  0  0  0  0  0  0  0  0
   -0.6908   -0.1620    1.6414 H   0  0  0  0  0  0  0  0  0  0  0  0
   -0.4100   -2.2412    0.2253 H   0  0  0  0  0  0  0  0  0  0  0  0
   -0.6528   -1.2286   -1.2106 H   0  0  0  0  0  0  0  0  0  0  0  0
    1.0852    0.1795   -2.0341 H   0  0  0  0  0  0  0  0  0  0  0  0
    1.5133   -1.6682    1.7878 H   0  0  0  0  0  0  0  0  0  0  0  0
    3.4121    0.9567   -1.9228 H   0  0  0  0  0  0  0  0  0  0  0  0
    3.8504   -0.8772    1.9021 H   0  0  0  0  0  0  0  0  0  0  0  0
    5.3287    0.9856   -0.6799 H   0  0  0  0  0  0  0  0  0  0  0  0
   -0.2308    1.9110    0.3641 N   0  0  0  0  0  0  0  0  0  0  0  0
    0.4816    1.5743    0.9920 H   0  0  0  0  0  0  0  0  0  0  0  0
   -0.0169    3.2024   -0.2439 C   0  0  1  0  0  0  0  0  0  0  0  0
   -0.8501    3.3876   -0.9196 H   0  0  0  0  0  0  0  0  0  0  0  0
    0.0126    3.9819    0.5184 H   0  0  0  0  0  0  0  0  0  0  0  0
    0.9183    3.2145   -0.8074 H   0  0  0  0  0  0  0  0  0  0  0  0
   -3.5260   -1.2624    0.1829 C   0  0  0  0  0  0  0  0  0  0  0  0
   -4.5685   -1.5670    0.7254 O   0  0  0  0  0  0  0  0  0  0  0  0
   -3.3091   -1.3960   -1.3001 C   0  0  2  0  0  0  0  0  0  0  0  0
   -2.6592   -2.2431   -1.5077 H   0  0  0  0  0  0  0  0  0  0  0  0
   -2.8768   -0.4842   -1.6995 H   0  0  0  0  0  0  0  0  0  0  0  0
   -4.2738   -1.5762   -1.7668 H   0  0  0  0  0  0  0  0  0  0  0  0
  1 13  1  0
  2  1  1  0
  2 14  1  1
  3 22  1  0
  3  2  1  0
  4  3  2  0
  5  6  1  0
  5 15  1  1
  5  2  1  0
  6  8  2  0
  7  9  2  0
  7  6  1  0
  8 10  1  0
  8 18  1  0
  9 11  1  0
 10 20  1  0
 11 12  1  0
 11 10  2  0
 16  5  1  0
 17  7  1  0
 19  9  1  0
 21 12  1  0
 22 23  1  0
 24 22  1  0
 24 26  1  1
 25 24  1  0
 27 24  1  0
 28 29  2  0
 28  1  1  0
 30 28  1  0
 30 31  1  1
 32 30  1  0
 33 30  1  0
M  END
$$$$
