-51.92540149
     RDKit          3D

 33 33  0  0  1  0  0  0  0  0999 V2000
   -1.1128   -0.4291   -0.5807 N   0  0  0  0  0  0  0  0  0  0  0  0
   -0.8954    0.7215    0.2621 C   0  0  2  0  0  0  0  0  0  0  0  0
   -1.9877    1.7964    0.1108 C   0  0  0  0  0  0  0  0  0  0  0  0
   -2.2023    2.6081    0.9857 O   0  0  0  0  0  0  0  0  0  0  0  0
    0.4550    1.3761   -0.0831 C   0  0  1  0  0  0  0  0  0  0  0  0
    1.5870    0.4103    0.1286 C   0  0  0  0  0  0  0  0  0  0  0  0
    2.0234    0.1135    1.4130 C   0  0  0  0  0  0  0  0  0  0  0  0
    2.1899   -0.2368   -0.9432 C   0  0  0  0  0  0  0  0  0  0  0  0
    3.0347   -0.8035    1.6249 C   0  0  0  0  0  0  0  0  0  0  0  0
    3.2018   -1.1549   -0.7446 C   0  0  0  0  0  0  0  0  0  0  0  0
    3.6305   -1.4471    0.5459 C   0  0  0  0  0  0  0  0  0  0  0  0
    4.6288   -2.3546    0.7038 O   0  0  0  0  0  0  0  0  0  0  0  0
   -0.4411   -0.5900   -1.3195 H   0  0  0  0  0  0  0  0  0  0  0  0
   -0.8787    0.4248    1.3179 H   0  0  0  0  0  0  0  0  0  0  0  0
    0.4325    1.7127   -1.1221 H   0  0  0  0  0  0  0  0  0  0  0  0
    0.5740    2.2510    0.5584 H   0  0  0  0  0  0  0  0  0  0  0  0
    1.5706    0.6106    2.2585 H   0  0  0  0  0  0  0  0  0  0  0  0
    1.8784   -0.0117   -1.9539 H   0  0  0  0  0  0  0  0  0  0  0  0
    3.3667   -1.0223    2.6314 H   0  0  0  0  0  0  0  0  0  0  0  0
    3.6725   -1.6570   -1.5743 H   0  0  0  0  0  0  0  0  0  0  0  0
    4.8272   -2.4672    1.6413 H   0  0  0  0  0  0  0  0  0  0  0  0
   -2.6222    1.7775   -1.0751 N   0  0  0  0  0  0  0  0  0  0  0  0
   -2.4165    1.0328   -1.7242 H   0  0  0  0  0  0  0  0  0  0  0  0
   -3.6760    2.7019   -1.4131 C   0  0  1  0  0  0  0  0  0  0  0  0
   -3.4247    3.2525   -2.3209 H   0  0  0  0  0  0  0  0  0  0  0  0
   -4.6205    2.1757   -1.5635 H   0  0  0  0  0  0  0  0  0  0  0  0
   -3.7781    3.3992   -0.5830 H   0  0  0  0  0  0  0  0  0  0  0  0
   -2.0184   -1.4257   -0.4005 C   0  0  0  0  0  0  0  0  0  0  0  0
   -2.0708   -2.3553   -1.1778 O   0  0  0  0  0  0  0  0  0  0  0  0
   -2.9337   -1.2753    0.7899 C   0  0  2  0  0  0  0  0  0  0  0  0
   -2.3604   -1.4079    1.7058 H   0  0  0  0  0  0  0  0  0  0  0  0
   -3.7024   -2.0410    0.7419 H   0  0  0  0  0  0  0  0  0  0  0  0
   -3.3941   -0.2908    0.8118 H   0  0  0  0  0  0  0  0  0  0  0  0
  1 28  1  0
  1  2  1  0
  2 14  1  1
  3  2  1  0
  3  4  2  0
  5  6  1  0
  5  2  1  0
  5 16  1  1
  6  7  2  0
  7  9  1  0
  7 17  1  0
  8 10  2  0
  8  6  1  0
  9 19  1  0
 10 11  1  0
 11 12  1  0
 11  9  2  0
 12 21  1  0
 13  1  1  0
 15  5  1  0
 18  8  1  0
 20 10  1  0
 22  3  1  0
 23 22  1  0
 24 22  1  0
 24 27  1  1
 25 24  1  0
 26 24  1  0
 28 30  1  0
 29 28  2  0
 30 33  1  1
 30 31  1  0
 32 30  1  0
M  END
$$$$
