-51.92532868
     RDKit          3D

 33 33  0  0  1  0  0  0  0  0999 V2000
   -1.0849   -0.0570   -0.8607 N   0  0  0  0  0  0  0  0  0  0  0  0
   -0.9362    0.6752    0.3715 C   0  0  2  0  0  0  0  0  0  0  0  0
   -2.0515    1.7117    0.6161 C   0  0  0  0  0  0  0  0  0  0  0  0
   -2.0990    2.3437    1.6500 O   0  0  0  0  0  0  0  0  0  0  0  0
    0.4215    1.4019    0.3933 C   0  0  1  0  0  0  0  0  0  0  0  0
    1.5448    0.4058    0.3416 C   0  0  0  0  0  0  0  0  0  0  0  0
    2.2048    0.1267   -0.8457 C   0  0  0  0  0  0  0  0  0  0  0  0
    1.9046   -0.3019    1.4839 C   0  0  0  0  0  0  0  0  0  0  0  0
    3.1984   -0.8343   -0.8981 C   0  0  0  0  0  0  0  0  0  0  0  0
    2.8938   -1.2618    1.4450 C   0  0  0  0  0  0  0  0  0  0  0  0
    3.5470   -1.5385    0.2469 C   0  0  0  0  0  0  0  0  0  0  0  0
    4.5134   -2.4941    0.2459 O   0  0  0  0  0  0  0  0  0  0  0  0
   -0.5717    0.2961   -1.6578 H   0  0  0  0  0  0  0  0  0  0  0  0
   -0.9604   -0.0193    1.2177 H   0  0  0  0  0  0  0  0  0  0  0  0
    0.4750    2.0861   -0.4568 H   0  0  0  0  0  0  0  0  0  0  0  0
    0.4665    1.9898    1.3112 H   0  0  0  0  0  0  0  0  0  0  0  0
    1.9534    0.6697   -1.7460 H   0  0  0  0  0  0  0  0  0  0  0  0
    1.4039   -0.0917    2.4178 H   0  0  0  0  0  0  0  0  0  0  0  0
    3.7036   -1.0406   -1.8325 H   0  0  0  0  0  0  0  0  0  0  0  0
    3.1776   -1.8107    2.3285 H   0  0  0  0  0  0  0  0  0  0  0  0
    4.8769   -2.5932   -0.6423 H   0  0  0  0  0  0  0  0  0  0  0  0
   -2.9272    1.8533   -0.3940 N   0  0  0  0  0  0  0  0  0  0  0  0
   -2.8283    1.2725   -1.2133 H   0  0  0  0  0  0  0  0  0  0  0  0
   -4.0360    2.7741   -0.3427 C   0  0  1  0  0  0  0  0  0  0  0  0
   -4.9848    2.2402   -0.4192 H   0  0  0  0  0  0  0  0  0  0  0  0
   -3.9872    3.2918    0.6139 H   0  0  0  0  0  0  0  0  0  0  0  0
   -3.9686    3.5017   -1.1532 H   0  0  0  0  0  0  0  0  0  0  0  0
   -1.7278   -1.2332   -1.0774 C   0  0  0  0  0  0  0  0  0  0  0  0
   -1.7341   -1.7309   -2.1838 O   0  0  0  0  0  0  0  0  0  0  0  0
   -2.4321   -1.8352    0.1142 C   0  0  2  0  0  0  0  0  0  0  0  0
   -1.6961   -2.1727    0.8418 H   0  0  0  0  0  0  0  0  0  0  0  0
   -3.0125   -2.6904   -0.2197 H   0  0  0  0  0  0  0  0  0  0  0  0
   -3.0884   -1.1090    0.5878 H   0  0  0  0  0  0  0  0  0  0  0  0
  1  2  1  0
  2  5  1  0
  2  3  1  0
  2 14  1  1
  3  4  2  0
  5 16  1  1
  6  5  1  0
  6  8  2  0
  7  6  1  0
  8 18  1  0
  9  7  2  0
  9 11  1  0
 10  8  1  0
 10 20  1  0
 11 10  2  0
 12 11  1  0
 13  1  1  0
 15  5  1  0
 17  7  1  0
 19  9  1  0
 21 12  1  0
 22 24  1  0
 22  3  1  0
 23 22  1  0
 24 26  1  1
 25 24  1  0
 27 24  1  0
 28  1  1  0
 28 30  1  0
 29 28  2  0
 30 33  1  1
 30 31  1  0
 32 30  1  0
M  END
$$$$
