relax
     RDKit          3D

 27 28  0  0  1  0  0  0  0  0999 V2000
    0.0840   -0.1590    0.0772 C   0  0  0  0  0  0  0  0  0  0  0  0
    1.4837   -0.2134    0.0585 C   0  0  0  0  0  0  0  0  0  0  0  0
   -0.6443   -0.0348   -1.0893 C   0  0  0  0  0  0  0  0  0  0  0  0
    2.1835   -0.1464   -1.1286 C   0  0  0  0  0  0  0  0  0  0  0  0
    1.4739   -0.0219   -2.3247 C   0  0  0  0  0  0  0  0  0  0  0  0
    0.0637    0.0360   -2.2823 C   0  0  0  0  0  0  0  0  0  0  0  0
   -0.3729    0.1628   -3.5727 N   0  0  0  0  0  0  0  0  0  0  0  0
    0.7079    0.1881   -4.4157 C   0  0  0  0  0  0  0  0  0  0  0  0
    1.8615    0.0728   -3.6998 C   0  0  0  0  0  0  0  0  0  0  0  0
    3.2557    0.1038   -4.2075 C   0  0  1  0  0  0  0  0  0  0  0  0
    3.8984    1.5004   -4.0613 C   0  0  2  0  0  0  0  0  0  0  0  0
    3.3191    2.4245   -5.0040 N   0  0  0  0  0  0  0  0  0  0  0  0
    5.3986    1.3509   -4.2221 C   0  0  0  0  0  0  0  0  0  0  0  0
    5.9792    0.8400   -3.1235 O   0  0  0  0  0  0  0  0  0  0  0  0
    6.0155    1.6170   -5.2171 O   0  0  0  0  0  0  0  0  0  0  0  0
    3.8618   -0.6263   -3.6652 H   0  0  0  0  0  0  0  0  0  0  0  0
    3.2908   -0.1708   -5.2646 H   0  0  0  0  0  0  0  0  0  0  0  0
    3.7043    1.8497   -3.0452 H   0  0  0  0  0  0  0  0  0  0  0  0
    0.5756    0.3031   -5.4789 H   0  0  0  0  0  0  0  0  0  0  0  0
   -1.3302    0.2262   -3.8591 H   0  0  0  0  0  0  0  0  0  0  0  0
    3.2663   -0.1899   -1.1310 H   0  0  0  0  0  0  0  0  0  0  0  0
   -1.7264    0.0061   -1.0708 H   0  0  0  0  0  0  0  0  0  0  0  0
    2.0211   -0.3104    0.9931 H   0  0  0  0  0  0  0  0  0  0  0  0
    3.7584    2.2995   -5.9079 H   0  0  0  0  0  0  0  0  0  0  0  0
    3.4979    3.3790   -4.7272 H   0  0  0  0  0  0  0  0  0  0  0  0
   -0.4364   -0.2160    1.0246 H   0  0  0  0  0  0  0  0  0  0  0  0
    6.9167    0.7312   -3.3249 H   0  0  0  0  0  0  0  0  0  0  0  0
  1 26  1  0
  2  1  1  0
  2 23  1  0
  3 22  1  0
  3  1  2  0
  4  2  2  0
  5  6  2  0
  5  4  1  0
  6  3  1  0
  7  6  1  0
  8  9  2  0
  8  7  1  0
  9  5  1  0
 10 11  1  0
 10  9  1  0
 10 16  1  1
 11 18  1  1
 12 25  1  0
 12 11  1  0
 13 11  1  0
 13 14  1  0
 15 13  2  0
 17 10  1  0
 19  8  1  0
 20  7  1  0
 21  4  1  0
 24 12  1  0
 27 14  1  0
M  END
$$$$
