relax
     RDKit          3D

 27 28  0  0  1  0  0  0  0  0999 V2000
   -0.1652    0.2191   -0.0961 C   0  0  0  0  0  0  0  0  0  0  0  0
    1.2252    0.1003    0.0308 C   0  0  0  0  0  0  0  0  0  0  0  0
   -0.7760    0.2144   -1.3335 C   0  0  0  0  0  0  0  0  0  0  0  0
    2.0344   -0.0225   -1.0790 C   0  0  0  0  0  0  0  0  0  0  0  0
    1.4451   -0.0266   -2.3454 C   0  0  0  0  0  0  0  0  0  0  0  0
    0.0426    0.0902   -2.4495 C   0  0  0  0  0  0  0  0  0  0  0  0
   -0.2716    0.0481   -3.7808 N   0  0  0  0  0  0  0  0  0  0  0  0
    0.8797   -0.0934   -4.5115 C   0  0  0  0  0  0  0  0  0  0  0  0
    1.9602   -0.1447   -3.6779 C   0  0  0  0  0  0  0  0  0  0  0  0
    3.3885   -0.2561   -4.0720 C   0  0  1  0  0  0  0  0  0  0  0  0
    4.1680    1.0440   -3.8192 C   0  0  2  0  0  0  0  0  0  0  0  0
    3.6046    2.1331   -4.6036 N   0  0  0  0  0  0  0  0  0  0  0  0
    5.6203    0.8038   -4.2258 C   0  0  0  0  0  0  0  0  0  0  0  0
    5.9508    1.3805   -5.3777 O   0  0  0  0  0  0  0  0  0  0  0  0
    6.3727    0.1280   -3.5844 O   0  0  0  0  0  0  0  0  0  0  0  0
    3.8908   -1.0510   -3.5177 H   0  0  0  0  0  0  0  0  0  0  0  0
    3.4630   -0.5073   -5.1338 H   0  0  0  0  0  0  0  0  0  0  0  0
    4.1654    1.2461   -2.7446 H   0  0  0  0  0  0  0  0  0  0  0  0
    0.8447   -0.1671   -5.5869 H   0  0  0  0  0  0  0  0  0  0  0  0
   -1.1977    0.0819   -4.1607 H   0  0  0  0  0  0  0  0  0  0  0  0
    3.1070   -0.1232   -0.9670 H   0  0  0  0  0  0  0  0  0  0  0  0
   -1.8512    0.3014   -1.4275 H   0  0  0  0  0  0  0  0  0  0  0  0
    1.6668    0.1006    1.0188 H   0  0  0  0  0  0  0  0  0  0  0  0
    3.7216    3.0224   -4.1392 H   0  0  0  0  0  0  0  0  0  0  0  0
    2.6105    1.9894   -4.7332 H   0  0  0  0  0  0  0  0  0  0  0  0
   -0.7725    0.3125    0.7948 H   0  0  0  0  0  0  0  0  0  0  0  0
    5.1462    1.8772   -5.6408 H   0  0  0  0  0  0  0  0  0  0  0  0
  1  2  1  0
  1 26  1  0
  2 23  1  0
  3  1  2  0
  4 21  1  0
  4  2  2  0
  5  4  1  0
  6  5  2  0
  6  3  1  0
  7  6  1  0
  8  7  1  0
  8  9  2  0
  9  5  1  0
 10 11  1  0
 10  9  1  0
 10 16  1  1
 11 18  1  1
 12 24  1  0
 12 11  1  0
 13 11  1  0
 13 15  2  0
 14 13  1  0
 17 10  1  0
 19  8  1  0
 20  7  1  0
 22  3  1  0
 25 12  1  0
 27 14  1  0
M  END
$$$$
