relax
     RDKit          3D

 27 28  0  0  1  0  0  0  0  0999 V2000
   -0.0089    0.0408   -0.0263 C   0  0  0  0  0  0  0  0  0  0  0  0
    1.3918    0.0865   -0.0272 C   0  0  0  0  0  0  0  0  0  0  0  0
   -0.7241   -0.0194   -1.2051 C   0  0  0  0  0  0  0  0  0  0  0  0
    2.1059    0.0740   -1.2068 C   0  0  0  0  0  0  0  0  0  0  0  0
    1.4096    0.0137   -2.4172 C   0  0  0  0  0  0  0  0  0  0  0  0
   -0.0019   -0.0331   -2.3922 C   0  0  0  0  0  0  0  0  0  0  0  0
   -0.4270   -0.0928   -3.6906 N   0  0  0  0  0  0  0  0  0  0  0  0
    0.6600   -0.0907   -4.5246 C   0  0  0  0  0  0  0  0  0  0  0  0
    1.8116   -0.0256   -3.7933 C   0  0  0  0  0  0  0  0  0  0  0  0
    3.2017    0.0110   -4.3319 C   0  0  1  0  0  0  0  0  0  0  0  0
    3.7374    1.4330   -4.5372 C   0  0  2  0  0  0  0  0  0  0  0  0
    3.8335    2.1352   -3.2815 N   0  0  0  0  0  0  0  0  0  0  0  0
    2.9348    2.1072   -5.6451 C   0  0  0  0  0  0  0  0  0  0  0  0
    2.6135    3.3808   -5.3690 O   0  0  0  0  0  0  0  0  0  0  0  0
    2.6384    1.5837   -6.6850 O   0  0  0  0  0  0  0  0  0  0  0  0
    3.8829   -0.4959   -3.6464 H   0  0  0  0  0  0  0  0  0  0  0  0
    3.2433   -0.5080   -5.2888 H   0  0  0  0  0  0  0  0  0  0  0  0
    4.7467    1.3423   -4.9567 H   0  0  0  0  0  0  0  0  0  0  0  0
    0.5389   -0.1357   -5.5948 H   0  0  0  0  0  0  0  0  0  0  0  0
   -1.3818   -0.1508   -3.9872 H   0  0  0  0  0  0  0  0  0  0  0  0
    3.1876    0.1225   -1.1999 H   0  0  0  0  0  0  0  0  0  0  0  0
   -1.8065   -0.0557   -1.2017 H   0  0  0  0  0  0  0  0  0  0  0  0
    1.9187    0.1335    0.9172 H   0  0  0  0  0  0  0  0  0  0  0  0
    2.9294    2.1698   -2.8276 H   0  0  0  0  0  0  0  0  0  0  0  0
    4.1334    3.0896   -3.4191 H   0  0  0  0  0  0  0  0  0  0  0  0
   -0.5398    0.0537    0.9168 H   0  0  0  0  0  0  0  0  0  0  0  0
    2.1410    3.7155   -6.1404 H   0  0  0  0  0  0  0  0  0  0  0  0
  1 26  1  0
  2  1  1  0
  2 23  1  0
  3 22  1  0
  3  1  2  0
  4 21  1  0
  4  2  2  0
  5  6  2  0
  5  4  1  0
  6  3  1  0
  7  6  1  0
  8  9  2  0
  8  7  1  0
  9  5  1  0
 10  9  1  0
 10 16  1  1
 11 18  1  6
 11 10  1  0
 11 12  1  0
 12 24  1  0
 13 14  1  0
 13 11  1  0
 15 13  2  0
 17 10  1  0
 19  8  1  0
 20  7  1  0
 25 12  1  0
 27 14  1  0
M  END
$$$$
