 energy: -43.264992879120 gnorm: 0.000036993802 xtb: 6.5.1 (9af7eec)
     RDKit          3D

 25 24  0  0  0  0  0  0  0  0999 V2000
    1.3660   -0.8539   -1.5903 N   0  0  0  0  0  0  0  0  0  0  0  0
    1.2168   -1.8155   -1.8755 H   0  0  0  0  0  0  0  0  0  0  0  0
    0.3850   -0.3681   -0.6514 C   0  0  1  0  0  0  0  0  0  0  0  0
    0.8890    0.0648    0.2227 H   0  0  0  0  0  0  0  0  0  0  0  0
   -0.4763    0.7293   -1.3042 C   0  0  2  0  0  0  0  0  0  0  0  0
   -0.4460   -1.5928   -0.2293 C   0  0  0  0  0  0  0  0  0  0  0  0
   -1.1652    0.3038   -2.0370 H   0  0  0  0  0  0  0  0  0  0  0  0
    0.2004    1.4039   -1.8380 H   0  0  0  0  0  0  0  0  0  0  0  0
   -1.2526    1.5726   -0.3338 C   0  0  0  0  0  0  0  0  0  0  0  0
   -0.3809   -2.6339   -0.8585 O   0  0  0  0  0  0  0  0  0  0  0  0
   -1.8902    2.5656   -0.9496 O   0  0  0  0  0  0  0  0  0  0  0  0
   -1.3166    1.4103    0.8604 O   0  0  0  0  0  0  0  0  0  0  0  0
   -1.1967   -1.4091    0.8602 N   0  0  0  0  0  0  0  0  0  0  0  0
   -2.0668   -2.4324    1.3869 C   0  0  1  0  0  0  0  0  0  0  0  0
   -1.2229   -0.4900    1.2860 H   0  0  0  0  0  0  0  0  0  0  0  0
   -1.8204   -2.6367    2.4295 H   0  0  0  0  0  0  0  0  0  0  0  0
   -3.1111   -2.1216    1.3221 H   0  0  0  0  0  0  0  0  0  0  0  0
   -1.9203   -3.3346    0.7953 H   0  0  0  0  0  0  0  0  0  0  0  0
    2.3936   -0.1140   -2.0563 C   0  0  0  0  0  0  0  0  0  0  0  0
    3.3039   -0.8697   -2.9994 C   0  0  1  0  0  0  0  0  0  0  0  0
    2.5553    1.0485   -1.7433 O   0  0  0  0  0  0  0  0  0  0  0  0
    3.7334   -1.7295   -2.4909 H   0  0  0  0  0  0  0  0  0  0  0  0
    2.7395   -1.2205   -3.8603 H   0  0  0  0  0  0  0  0  0  0  0  0
    4.1011   -0.2124   -3.3336 H   0  0  0  0  0  0  0  0  0  0  0  0
   -2.3673    3.1208   -0.3118 H   0  0  0  0  0  0  0  0  0  0  0  0
  1  2  1  0
  1 19  1  0
  1  3  1  0
  3  6  1  0
  3  5  1  0
  3  4  1  1
  5  9  1  0
  5  8  1  6
  5  7  1  0
  6 10  1  0
  6 13  1  0
  9 11  1  0
  9 12  1  0
 11 25  1  0
 13 14  1  0
 13 15  1  0
 14 17  1  1
 14 16  1  0
 14 18  1  0
 19 20  1  0
 19 21  1  0
 20 24  1  6
 20 23  1  0
 20 22  1  0
M  END
$$$$
