 energy: -43.262905510919 gnorm: 0.000040689589 xtb: 6.5.1 (9af7eec)
     RDKit          3D

 25 24  0  0  0  0  0  0  0  0999 V2000
    0.9193    0.0598    0.6714 N   0  0  0  0  0  0  0  0  0  0  0  0
    0.5012   -0.4577    1.4293 H   0  0  0  0  0  0  0  0  0  0  0  0
    0.0813    1.0437    0.0100 C   0  0  1  0  0  0  0  0  0  0  0  0
    0.2986    1.0003   -1.0651 H   0  0  0  0  0  0  0  0  0  0  0  0
   -1.3976    0.7507    0.2741 C   0  0  2  0  0  0  0  0  0  0  0  0
    0.4275    2.4660    0.5233 C   0  0  0  0  0  0  0  0  0  0  0  0
   -1.9983    1.4897   -0.2546 H   0  0  0  0  0  0  0  0  0  0  0  0
   -1.5869    0.8354    1.3449 H   0  0  0  0  0  0  0  0  0  0  0  0
   -1.7586   -0.6274   -0.2145 C   0  0  0  0  0  0  0  0  0  0  0  0
   -0.3139    3.0932    1.2502 O   0  0  0  0  0  0  0  0  0  0  0  0
   -1.4604   -1.5731    0.6947 O   0  0  0  0  0  0  0  0  0  0  0  0
   -2.2327   -0.8942   -1.2824 O   0  0  0  0  0  0  0  0  0  0  0  0
    1.6141    2.8927    0.0743 N   0  0  0  0  0  0  0  0  0  0  0  0
    2.1785    4.1633    0.4585 C   0  0  1  0  0  0  0  0  0  0  0  0
    2.1906    2.2510   -0.4631 H   0  0  0  0  0  0  0  0  0  0  0  0
    1.4379    4.6929    1.0558 H   0  0  0  0  0  0  0  0  0  0  0  0
    3.0859    4.0209    1.0485 H   0  0  0  0  0  0  0  0  0  0  0  0
    2.4197    4.7509   -0.4281 H   0  0  0  0  0  0  0  0  0  0  0  0
    2.1709   -0.2308    0.2627 C   0  0  0  0  0  0  0  0  0  0  0  0
    2.8213   -1.3614    1.0232 C   0  0  1  0  0  0  0  0  0  0  0  0
    2.7203    0.3829   -0.6355 O   0  0  0  0  0  0  0  0  0  0  0  0
    2.2142   -2.2610    0.9541 H   0  0  0  0  0  0  0  0  0  0  0  0
    3.8045   -1.5559    0.6055 H   0  0  0  0  0  0  0  0  0  0  0  0
    2.9249   -1.0897    2.0716 H   0  0  0  0  0  0  0  0  0  0  0  0
   -1.6965   -2.4513    0.3560 H   0  0  0  0  0  0  0  0  0  0  0  0
  1  2  1  0
  1 19  1  0
  1  3  1  0
  3  6  1  0
  3  5  1  0
  3  4  1  6
  5  9  1  0
  5  8  1  1
  5  7  1  0
  6 10  1  0
  6 13  1  0
  9 11  1  0
  9 12  1  0
 11 25  1  0
 13 14  1  0
 13 15  1  0
 14 17  1  1
 14 16  1  0
 14 18  1  0
 19 20  1  0
 19 21  1  0
 20 24  1  1
 20 23  1  0
 20 22  1  0
M  END
$$$$
