-35.86110689
     RDKit          3D

 13 12  0  0  0  0  0  0  0  0999 V2000
   -2.4863    0.2311    1.0464 O   0  0  0  0  0  0  0  0  0  0  0  0
   -1.3873   -0.1365   -0.0307 P   0  0  2  0  0  0  0  0  0  0  0  0
   -1.2842   -1.5491   -0.3905 O   0  0  0  0  0  0  0  0  0  0  0  0
   -0.0561    0.4318    0.6528 O   0  0  0  0  0  0  0  0  0  0  0  0
    1.4395    0.1818    0.0237 P   0  0  2  0  0  0  0  0  0  0  0  0
    2.0135    1.3989   -0.5216 O   0  0  0  0  0  0  0  0  0  0  0  0
    1.2791   -1.0350   -0.9392 O   0  0  0  0  0  0  0  0  0  0  0  0
    2.1883   -0.3902    1.3022 O   0  0  0  0  0  0  0  0  0  0  0  0
   -1.6895    0.8253   -1.2307 O   0  0  0  0  0  0  0  0  0  0  0  0
   -2.6295   -0.4819    1.6673 H   0  0  0  0  0  0  0  0  0  0  0  0
    0.4604   -1.5471   -0.7990 H   0  0  0  0  0  0  0  0  0  0  0  0
    2.8010    0.2627    1.6376 H   0  0  0  0  0  0  0  0  0  0  0  0
   -1.6777    1.7578   -1.0097 H   0  0  0  0  0  0  0  0  0  0  0  0
  1 10  1  0
  2  4  1  1
  2  1  1  0
  3  2  2  0
  5  4  1  1
  5  8  1  0
  6  5  2  0
  7 11  1  0
  7  5  1  0
  8 12  1  0
  9 13  1  0
  9  2  1  0
M  END
$$$$
