-55.58478950
     RDKit          3D

 36 37  0  0  1  0  0  0  0  0999 V2000
   -1.0844    0.9282   -0.8238 N   0  0  0  0  0  0  0  0  0  0  0  0
   -1.7413   -0.2953   -0.4527 C   0  0  2  0  0  0  0  0  0  0  0  0
   -2.4026   -0.0633    0.9063 C   0  0  0  0  0  0  0  0  0  0  0  0
   -1.9717    0.7481    1.6992 O   0  0  0  0  0  0  0  0  0  0  0  0
   -0.7271   -1.4669   -0.3027 C   0  0  1  0  0  0  0  0  0  0  0  0
   -0.7388    1.4659   -0.0363 H   0  0  0  0  0  0  0  0  0  0  0  0
   -2.4958   -0.5530   -1.2004 H   0  0  0  0  0  0  0  0  0  0  0  0
   -1.2396   -2.3316    0.1236 H   0  0  0  0  0  0  0  0  0  0  0  0
   -0.3552   -1.7370   -1.2924 H   0  0  0  0  0  0  0  0  0  0  0  0
   -0.8132    1.4170   -2.0531 C   0  0  0  0  0  0  0  0  0  0  0  0
   -0.2162    2.4624   -2.1971 O   0  0  0  0  0  0  0  0  0  0  0  0
   -3.4647   -0.8408    1.2118 N   0  0  0  0  0  0  0  0  0  0  0  0
   -3.8847   -0.6285    2.1060 H   0  0  0  0  0  0  0  0  0  0  0  0
   -4.1915   -1.7395    0.3472 C   0  0  1  0  0  0  0  0  0  0  0  0
   -3.5180   -2.4454   -0.1385 H   0  0  0  0  0  0  0  0  0  0  0  0
   -4.9007   -2.3040    0.9481 H   0  0  0  0  0  0  0  0  0  0  0  0
   -4.7481   -1.1966   -0.4232 H   0  0  0  0  0  0  0  0  0  0  0  0
   -1.3239    0.6010   -3.2261 C   0  0  2  0  0  0  0  0  0  0  0  0
   -0.9605   -0.4223   -3.1817 H   0  0  0  0  0  0  0  0  0  0  0  0
   -0.9766    1.0661   -4.1442 H   0  0  0  0  0  0  0  0  0  0  0  0
   -2.4123    0.5913   -3.2278 H   0  0  0  0  0  0  0  0  0  0  0  0
    0.4194   -1.0696    0.5650 C   0  0  0  0  0  0  0  0  0  0  0  0
    0.4891   -1.1429    1.9260 C   0  0  0  0  0  0  0  0  0  0  0  0
    1.6359   -0.4607    0.1256 C   0  0  0  0  0  0  0  0  0  0  0  0
   -0.2303   -1.5306    2.6218 H   0  0  0  0  0  0  0  0  0  0  0  0
    2.3989   -0.1975    1.2882 C   0  0  0  0  0  0  0  0  0  0  0  0
    2.1546   -0.1192   -1.1234 C   0  0  0  0  0  0  0  0  0  0  0  0
    1.9524   -0.5404    3.3260 H   0  0  0  0  0  0  0  0  0  0  0  0
    3.3960    0.4703   -1.1822 C   0  0  0  0  0  0  0  0  0  0  0  0
    1.5934   -0.3056   -2.0266 H   0  0  0  0  0  0  0  0  0  0  0  0
    1.6774   -0.6304    2.3632 N   0  0  0  0  0  0  0  0  0  0  0  0
    3.6528    0.3964    1.2223 C   0  0  0  0  0  0  0  0  0  0  0  0
    4.1366    0.7264   -0.0249 C   0  0  0  0  0  0  0  0  0  0  0  0
    4.2235    0.5943    2.1180 H   0  0  0  0  0  0  0  0  0  0  0  0
    5.1062    1.1936   -0.1138 H   0  0  0  0  0  0  0  0  0  0  0  0
    3.8102    0.7478   -2.1399 H   0  0  0  0  0  0  0  0  0  0  0  0
  1  2  1  0
  1  6  1  0
  2  7  1  6
  2  5  1  0
  2  3  1  0
  3 12  1  0
  3  4  2  0
  5  8  1  1
  5 22  1  0
  9  5  1  0
 10  1  1  0
 11 10  2  0
 12 13  1  0
 14 16  1  1
 14 12  1  0
 15 14  1  0
 17 14  1  0
 18 19  1  1
 18 10  1  0
 20 18  1  0
 21 18  1  0
 22 23  2  0
 23 31  1  0
 23 25  1  0
 24 22  1  0
 24 26  2  0
 26 31  1  0
 27 24  1  0
 29 27  2  0
 29 33  1  0
 30 27  1  0
 31 28  1  0
 32 26  1  0
 32 34  1  0
 33 32  2  0
 35 33  1  0
 36 29  1  0
M  END
$$$$
