-55.58415967
     RDKit          3D

 36 37  0  0  1  0  0  0  0  0999 V2000
   -1.2406    0.6151    0.3886 N   0  0  0  0  0  0  0  0  0  0  0  0
   -1.6780   -0.1583   -0.7545 C   0  0  2  0  0  0  0  0  0  0  0  0
   -2.2417   -1.4879   -0.2246 C   0  0  0  0  0  0  0  0  0  0  0  0
   -1.7407   -2.5666   -0.4652 O   0  0  0  0  0  0  0  0  0  0  0  0
   -0.5389   -0.4097   -1.7844 C   0  0  1  0  0  0  0  0  0  0  0  0
   -0.6791    0.1039    1.0596 H   0  0  0  0  0  0  0  0  0  0  0  0
   -2.5023    0.3740   -1.2381 H   0  0  0  0  0  0  0  0  0  0  0  0
   -0.4724   -1.4890   -1.9404 H   0  0  0  0  0  0  0  0  0  0  0  0
   -0.7883    0.0641   -2.7346 H   0  0  0  0  0  0  0  0  0  0  0  0
   -1.0573    1.9613    0.4350 C   0  0  0  0  0  0  0  0  0  0  0  0
   -0.4530    2.4723    1.3535 O   0  0  0  0  0  0  0  0  0  0  0  0
   -3.3400   -1.3912    0.5505 N   0  0  0  0  0  0  0  0  0  0  0  0
   -3.6963   -2.2784    0.8771 H   0  0  0  0  0  0  0  0  0  0  0  0
   -4.1093   -0.2120    0.8669 C   0  0  1  0  0  0  0  0  0  0  0  0
   -4.8474   -0.4679    1.6227 H   0  0  0  0  0  0  0  0  0  0  0  0
   -3.4661    0.5751    1.2607 H   0  0  0  0  0  0  0  0  0  0  0  0
   -4.6356    0.1665   -0.0149 H   0  0  0  0  0  0  0  0  0  0  0  0
   -1.7160    2.7652   -0.6643 C   0  0  2  0  0  0  0  0  0  0  0  0
   -1.3238    2.4725   -1.6342 H   0  0  0  0  0  0  0  0  0  0  0  0
   -1.5079    3.8175   -0.4937 H   0  0  0  0  0  0  0  0  0  0  0  0
   -2.7930    2.6108   -0.6540 H   0  0  0  0  0  0  0  0  0  0  0  0
    0.7772    0.0993   -1.2989 C   0  0  0  0  0  0  0  0  0  0  0  0
    1.4247    1.2389   -1.6764 C   0  0  0  0  0  0  0  0  0  0  0  0
    1.5718   -0.4948   -0.2692 C   0  0  0  0  0  0  0  0  0  0  0  0
    1.1565    1.9584   -2.4275 H   0  0  0  0  0  0  0  0  0  0  0  0
    2.6919    0.3481   -0.0800 C   0  0  0  0  0  0  0  0  0  0  0  0
    1.4368   -1.6491    0.5032 C   0  0  0  0  0  0  0  0  0  0  0  0
    3.2155    2.1616   -1.0306 H   0  0  0  0  0  0  0  0  0  0  0  0
    2.4092   -1.9266    1.4371 C   0  0  0  0  0  0  0  0  0  0  0  0
    0.5925   -2.3075    0.3620 H   0  0  0  0  0  0  0  0  0  0  0  0
    2.5799    1.3863   -0.9581 N   0  0  0  0  0  0  0  0  0  0  0  0
    3.6691    0.0601    0.8642 C   0  0  0  0  0  0  0  0  0  0  0  0
    3.5096   -1.0830    1.6169 C   0  0  0  0  0  0  0  0  0  0  0  0
    4.5197    0.7112    1.0032 H   0  0  0  0  0  0  0  0  0  0  0  0
    4.2493   -1.3363    2.3623 H   0  0  0  0  0  0  0  0  0  0  0  0
    2.3269   -2.8142    2.0474 H   0  0  0  0  0  0  0  0  0  0  0  0
  1 10  1  0
  1  6  1  0
  2  7  1  6
  2  3  1  0
  2  1  1  0
  3 12  1  0
  4  3  2  0
  5 22  1  0
  5  2  1  0
  5  8  1  6
  9  5  1  0
 10 11  2  0
 12 14  1  0
 12 13  1  0
 14 16  1  1
 14 15  1  0
 17 14  1  0
 18 21  1  6
 18 20  1  0
 18 10  1  0
 19 18  1  0
 22 24  1  0
 23 22  2  0
 23 31  1  0
 24 26  2  0
 24 27  1  0
 25 23  1  0
 26 32  1  0
 27 29  2  0
 28 31  1  0
 29 33  1  0
 29 36  1  0
 30 27  1  0
 31 26  1  0
 32 34  1  0
 32 33  2  0
 33 35  1  0
M  END
$$$$
