-55.58396083
     RDKit          3D

 36 37  0  0  1  0  0  0  0  0999 V2000
   -1.0736    0.3792   -0.9363 N   0  0  0  0  0  0  0  0  0  0  0  0
   -1.3422   -0.5810    0.1167 C   0  0  2  0  0  0  0  0  0  0  0  0
   -2.8413   -0.7486    0.3925 C   0  0  0  0  0  0  0  0  0  0  0  0
   -3.3253   -0.6098    1.4968 O   0  0  0  0  0  0  0  0  0  0  0  0
   -0.5828   -0.2509    1.4225 C   0  0  1  0  0  0  0  0  0  0  0  0
   -0.2579    0.1723   -1.4986 H   0  0  0  0  0  0  0  0  0  0  0  0
   -0.9792   -1.5469   -0.2553 H   0  0  0  0  0  0  0  0  0  0  0  0
   -1.1308    0.5066    1.9827 H   0  0  0  0  0  0  0  0  0  0  0  0
   -0.5479   -1.1532    2.0349 H   0  0  0  0  0  0  0  0  0  0  0  0
   -1.4454    1.6839   -1.0317 C   0  0  0  0  0  0  0  0  0  0  0  0
   -0.9040    2.4015   -1.8490 O   0  0  0  0  0  0  0  0  0  0  0  0
   -3.6039   -1.1082   -0.6608 N   0  0  0  0  0  0  0  0  0  0  0  0
   -4.5889   -1.1893   -0.4497 H   0  0  0  0  0  0  0  0  0  0  0  0
   -3.2084   -1.3028   -2.0341 C   0  0  1  0  0  0  0  0  0  0  0  0
   -3.9870   -1.8640   -2.5465 H   0  0  0  0  0  0  0  0  0  0  0  0
   -3.0616   -0.3512   -2.5517 H   0  0  0  0  0  0  0  0  0  0  0  0
   -2.2799   -1.8708   -2.0901 H   0  0  0  0  0  0  0  0  0  0  0  0
   -2.5876    2.1524   -0.1661 C   0  0  2  0  0  0  0  0  0  0  0  0
   -3.5234    1.7484   -0.5480 H   0  0  0  0  0  0  0  0  0  0  0  0
   -2.6346    3.2372   -0.2155 H   0  0  0  0  0  0  0  0  0  0  0  0
   -2.4750    1.8357    0.8652 H   0  0  0  0  0  0  0  0  0  0  0  0
    0.7911    0.2391    1.1140 C   0  0  0  0  0  0  0  0  0  0  0  0
    1.2225    1.5331    1.1447 C   0  0  0  0  0  0  0  0  0  0  0  0
    1.8857   -0.5417    0.6293 C   0  0  0  0  0  0  0  0  0  0  0  0
    0.6907    2.4158    1.4444 H   0  0  0  0  0  0  0  0  0  0  0  0
    2.9546    0.3581    0.3947 C   0  0  0  0  0  0  0  0  0  0  0  0
    2.0684   -1.9009    0.3724 C   0  0  0  0  0  0  0  0  0  0  0  0
    3.0575    2.4549    0.6425 H   0  0  0  0  0  0  0  0  0  0  0  0
    3.2865   -2.3234   -0.1094 C   0  0  0  0  0  0  0  0  0  0  0  0
    1.2716   -2.6074    0.5557 H   0  0  0  0  0  0  0  0  0  0  0  0
    2.5213    1.6084    0.7242 N   0  0  0  0  0  0  0  0  0  0  0  0
    4.1822   -0.0756   -0.0895 C   0  0  0  0  0  0  0  0  0  0  0  0
    4.3305   -1.4226   -0.3393 C   0  0  0  0  0  0  0  0  0  0  0  0
    4.9893    0.6206   -0.2640 H   0  0  0  0  0  0  0  0  0  0  0  0
    5.2710   -1.7940   -0.7184 H   0  0  0  0  0  0  0  0  0  0  0  0
    3.4469   -3.3717   -0.3150 H   0  0  0  0  0  0  0  0  0  0  0  0
  1  2  1  0
  2  7  1  6
  2  3  1  0
  2  5  1  0
  3  4  2  0
  5  8  1  1
  5  9  1  0
  6  1  1  0
 10  1  1  0
 10 18  1  0
 11 10  2  0
 12 13  1  0
 12  3  1  0
 14 12  1  0
 14 15  1  6
 16 14  1  0
 17 14  1  0
 18 21  1  1
 19 18  1  0
 20 18  1  0
 22 23  2  0
 22  5  1  0
 23 25  1  0
 24 22  1  0
 26 24  1  0
 26 31  1  0
 27 30  1  0
 27 24  2  0
 28 31  1  0
 29 27  1  0
 31 23  1  0
 32 26  2  0
 33 29  2  0
 33 32  1  0
 34 32  1  0
 35 33  1  0
 36 29  1  0
M  END
$$$$
