-55.58577860
     RDKit          3D

 36 37  0  0  1  0  0  0  0  0999 V2000
   -1.3150    1.1340   -0.1307 N   0  0  0  0  0  0  0  0  0  0  0  0
   -1.6997   -0.2444    0.0021 C   0  0  2  0  0  0  0  0  0  0  0  0
   -3.1250   -0.2749    0.5619 C   0  0  0  0  0  0  0  0  0  0  0  0
   -3.5387    0.6047    1.2886 O   0  0  0  0  0  0  0  0  0  0  0  0
   -0.7909   -0.9872    1.0198 C   0  0  1  0  0  0  0  0  0  0  0  0
   -1.6805    1.7329    0.6022 H   0  0  0  0  0  0  0  0  0  0  0  0
   -1.6503   -0.7383   -0.9693 H   0  0  0  0  0  0  0  0  0  0  0  0
   -0.7857   -0.4090    1.9452 H   0  0  0  0  0  0  0  0  0  0  0  0
   -1.2201   -1.9688    1.2312 H   0  0  0  0  0  0  0  0  0  0  0  0
   -0.6271    1.7557   -1.1148 C   0  0  0  0  0  0  0  0  0  0  0  0
   -0.4193    2.9496   -1.0669 O   0  0  0  0  0  0  0  0  0  0  0  0
   -3.8836   -1.3489    0.2578 N   0  0  0  0  0  0  0  0  0  0  0  0
   -4.8205   -1.3143    0.6346 H   0  0  0  0  0  0  0  0  0  0  0  0
   -3.5832   -2.4194   -0.6620 C   0  0  1  0  0  0  0  0  0  0  0  0
   -3.6007   -2.0749   -1.7007 H   0  0  0  0  0  0  0  0  0  0  0  0
   -2.6045   -2.8509   -0.4516 H   0  0  0  0  0  0  0  0  0  0  0  0
   -4.3326   -3.1989   -0.5469 H   0  0  0  0  0  0  0  0  0  0  0  0
   -0.1524    0.8894   -2.2634 C   0  0  2  0  0  0  0  0  0  0  0  0
    0.4377    0.0541   -1.8989 H   0  0  0  0  0  0  0  0  0  0  0  0
    0.4578    1.5015   -2.9209 H   0  0  0  0  0  0  0  0  0  0  0  0
   -1.0062    0.5132   -2.8246 H   0  0  0  0  0  0  0  0  0  0  0  0
    0.5998   -1.1418    0.5062 C   0  0  0  0  0  0  0  0  0  0  0  0
    1.1117   -2.2142   -0.1663 C   0  0  0  0  0  0  0  0  0  0  0  0
    1.6457   -0.1679    0.5767 C   0  0  0  0  0  0  0  0  0  0  0  0
    0.6428   -3.1477   -0.4166 H   0  0  0  0  0  0  0  0  0  0  0  0
    2.7671   -0.7285   -0.0792 C   0  0  0  0  0  0  0  0  0  0  0  0
    1.7421    1.1109    1.1255 C   0  0  0  0  0  0  0  0  0  0  0  0
    3.0154   -2.6157   -1.0023 H   0  0  0  0  0  0  0  0  0  0  0  0
    2.9309    1.7911    0.9987 C   0  0  0  0  0  0  0  0  0  0  0  0
    0.9020    1.5590    1.6321 H   0  0  0  0  0  0  0  0  0  0  0  0
    2.4116   -1.9718   -0.5211 N   0  0  0  0  0  0  0  0  0  0  0  0
    3.9656   -0.0371   -0.2025 C   0  0  0  0  0  0  0  0  0  0  0  0
    4.0283    1.2268    0.3419 C   0  0  0  0  0  0  0  0  0  0  0  0
    4.8132   -0.4767   -0.7081 H   0  0  0  0  0  0  0  0  0  0  0  0
    4.9428    1.7954    0.2617 H   0  0  0  0  0  0  0  0  0  0  0  0
    3.0227    2.7850    1.4094 H   0  0  0  0  0  0  0  0  0  0  0  0
  1  2  1  0
  1  6  1  0
  2  7  1  6
  2  3  1  0
  2  5  1  0
  3  4  2  0
  5  9  1  1
  5  8  1  0
 10 11  2  0
 10  1  1  0
 12  3  1  0
 12 13  1  0
 14 17  1  6
 14 16  1  0
 14 12  1  0
 15 14  1  0
 18 19  1  1
 18 10  1  0
 20 18  1  0
 21 18  1  0
 22 24  1  0
 22  5  1  0
 23 22  2  0
 24 27  2  0
 25 23  1  0
 26 24  1  0
 27 30  1  0
 28 31  1  0
 29 27  1  0
 29 36  1  0
 31 23  1  0
 31 26  1  0
 32 26  2  0
 32 33  1  0
 33 29  2  0
 34 32  1  0
 35 33  1  0
M  END
$$$$
