Coordinates from ORCA-job xad
     RDKit          3D

 31 30  0  0  0  0  0  0  0  0999 V2000
    0.1330    0.8970   -0.5530 N   0  0  0  0  0  0  0  0  0  0  0  0
   -0.0850   -0.3730    0.1250 C   0  0  2  0  0  0  0  0  0  0  0  0
    1.0890   -1.3170   -0.1640 C   0  0  0  0  0  0  0  0  0  0  0  0
    1.0110   -2.2460   -0.9600 O   0  0  0  0  0  0  0  0  0  0  0  0
   -1.4060   -0.9830   -0.3050 C   0  0  2  0  0  0  0  0  0  0  0  0
   -2.6220   -0.0890   -0.0750 C   0  0  1  0  0  0  0  0  0  0  0  0
   -3.8840   -0.8270   -0.5100 C   0  0  1  0  0  0  0  0  0  0  0  0
   -2.7380    0.3550    1.3790 C   0  0  2  0  0  0  0  0  0  0  0  0
   -0.2060    1.0000   -1.4960 H   0  0  0  0  0  0  0  0  0  0  0  0
   -0.0860   -0.1470    1.1910 H   0  0  0  0  0  0  0  0  0  0  0  0
   -1.5350   -1.9180    0.2470 H   0  0  0  0  0  0  0  0  0  0  0  0
   -1.3320   -1.2690   -1.3560 H   0  0  0  0  0  0  0  0  0  0  0  0
   -2.5210    0.8060   -0.6950 H   0  0  0  0  0  0  0  0  0  0  0  0
   -4.0360   -1.7110    0.1110 H   0  0  0  0  0  0  0  0  0  0  0  0
   -4.7640   -0.1930   -0.4120 H   0  0  0  0  0  0  0  0  0  0  0  0
   -3.8140   -1.1550   -1.5470 H   0  0  0  0  0  0  0  0  0  0  0  0
   -2.7640   -0.5150    2.0390 H   0  0  0  0  0  0  0  0  0  0  0  0
   -3.6560    0.9200    1.5370 H   0  0  0  0  0  0  0  0  0  0  0  0
   -1.9040    0.9860    1.6850 H   0  0  0  0  0  0  0  0  0  0  0  0
    2.2030   -1.0030    0.5380 N   0  0  0  0  0  0  0  0  0  0  0  0
    2.1880   -0.1270    1.0460 H   0  0  0  0  0  0  0  0  0  0  0  0
    3.4540   -1.6910    0.3040 C   0  0  1  0  0  0  0  0  0  0  0  0
    4.0410   -1.7000    1.2180 H   0  0  0  0  0  0  0  0  0  0  0  0
    3.2310   -2.7110    0.0060 H   0  0  0  0  0  0  0  0  0  0  0  0
    4.0370   -1.2210   -0.4880 H   0  0  0  0  0  0  0  0  0  0  0  0
    0.8860    1.8860   -0.0120 C   0  0  0  0  0  0  0  0  0  0  0  0
    1.4330    1.7690    1.0850 O   0  0  0  0  0  0  0  0  0  0  0  0
    0.9990    3.1490   -0.8260 C   0  0  2  0  0  0  0  0  0  0  0  0
    2.0520    3.3590   -0.9970 H   0  0  0  0  0  0  0  0  0  0  0  0
    0.5890    3.9700   -0.2430 H   0  0  0  0  0  0  0  0  0  0  0  0
    0.4810    3.0930   -1.7800 H   0  0  0  0  0  0  0  0  0  0  0  0
  1  9  1  0
  1 26  1  0
  1  2  1  0
  2  5  1  0
  2  3  1  0
  2 10  1  1
  3  4  1  0
  3 20  1  0
  5 12  1  6
  5  6  1  0
  5 11  1  0
  6 13  1  6
  6  7  1  0
  6  8  1  0
  7 16  1  6
  7 15  1  0
  7 14  1  0
  8 18  1  6
  8 19  1  0
  8 17  1  0
 20 22  1  0
 20 21  1  0
 22 25  1  6
 22 24  1  0
 22 23  1  0
 26 28  1  0
 26 27  1  0
 28 31  1  6
 28 29  1  0
 28 30  1  0
M  END
$$$$
