Coordinates from ORCA-job xaq
     RDKit          3D

 31 30  0  0  0  0  0  0  0  0999 V2000
    1.3630   -0.8060   -0.9200 N   0  0  0  0  0  0  0  0  0  0  0  0
   -0.0010   -0.2800   -0.8250 C   0  0  2  0  0  0  0  0  0  0  0  0
   -0.0630    1.2300   -0.5750 C   0  0  0  0  0  0  0  0  0  0  0  0
   -0.6550    1.9710   -1.3570 O   0  0  0  0  0  0  0  0  0  0  0  0
   -0.8480   -1.0630    0.1800 C   0  0  2  0  0  0  0  0  0  0  0  0
   -2.2770   -0.5380    0.3180 C   0  0  1  0  0  0  0  0  0  0  0  0
   -3.0220   -0.5430   -1.0130 C   0  0  1  0  0  0  0  0  0  0  0  0
   -3.0200   -1.3760    1.3520 C   0  0  2  0  0  0  0  0  0  0  0  0
    1.6730   -1.0890   -1.8330 H   0  0  0  0  0  0  0  0  0  0  0  0
   -0.4240   -0.4010   -1.8190 H   0  0  0  0  0  0  0  0  0  0  0  0
   -0.3550   -1.0430    1.1510 H   0  0  0  0  0  0  0  0  0  0  0  0
   -0.8790   -2.1060   -0.1490 H   0  0  0  0  0  0  0  0  0  0  0  0
   -2.2270    0.4920    0.6810 H   0  0  0  0  0  0  0  0  0  0  0  0
   -3.0070   -1.5430   -1.4520 H   0  0  0  0  0  0  0  0  0  0  0  0
   -4.0650   -0.2630   -0.8660 H   0  0  0  0  0  0  0  0  0  0  0  0
   -2.5890    0.1600   -1.7210 H   0  0  0  0  0  0  0  0  0  0  0  0
   -3.1060   -2.4090    1.0120 H   0  0  0  0  0  0  0  0  0  0  0  0
   -4.0270   -0.9930    1.5150 H   0  0  0  0  0  0  0  0  0  0  0  0
   -2.4980   -1.3790    2.3090 H   0  0  0  0  0  0  0  0  0  0  0  0
    0.5140    1.6570    0.5650 N   0  0  0  0  0  0  0  0  0  0  0  0
    1.0460    0.9840    1.1070 H   0  0  0  0  0  0  0  0  0  0  0  0
    0.5110    3.0650    0.8950 C   0  0  1  0  0  0  0  0  0  0  0  0
    0.9260    3.1900    1.8910 H   0  0  0  0  0  0  0  0  0  0  0  0
    1.1000    3.6430    0.1840 H   0  0  0  0  0  0  0  0  0  0  0  0
   -0.5050    3.4520    0.8760 H   0  0  0  0  0  0  0  0  0  0  0  0
    2.2440   -0.9600    0.0970 C   0  0  0  0  0  0  0  0  0  0  0  0
    2.0240   -0.5950    1.2530 O   0  0  0  0  0  0  0  0  0  0  0  0
    3.5460   -1.6270   -0.2720 C   0  0  2  0  0  0  0  0  0  0  0  0
    4.3650   -0.9910    0.0540 H   0  0  0  0  0  0  0  0  0  0  0  0
    3.6470   -1.8310   -1.3350 H   0  0  0  0  0  0  0  0  0  0  0  0
    3.6170   -2.5630    0.2790 H   0  0  0  0  0  0  0  0  0  0  0  0
  1  9  1  0
  1  2  1  0
  1 26  1  0
  2 10  1  6
  2  3  1  0
  2  5  1  0
  3  4  1  0
  3 20  1  0
  5 12  1  6
  5  6  1  0
  5 11  1  0
  6  7  1  0
  6 13  1  1
  6  8  1  0
  7 16  1  6
  7 14  1  0
  7 15  1  0
  8 17  1  6
  8 18  1  0
  8 19  1  0
 20 22  1  0
 20 21  1  0
 22 24  1  6
 22 25  1  0
 22 23  1  0
 26 28  1  0
 26 27  1  0
 28 30  1  6
 28 29  1  0
 28 31  1  0
M  END
$$$$
