 energy: -61.782371044208 gnorm: 0.000041541468 xtb: 6.5.1 (9af7eec)
     RDKit          3D

 39 38  0  0  0  0  0  0  0  0999 V2000
   -4.5545    2.4173   -1.0699 H   0  0  0  0  0  0  0  0  0  0  0  0
   -4.8988    1.6414   -0.3924 C   0  0  1  0  0  0  0  0  0  0  0  0
   -5.9858    1.6753   -0.3445 H   0  0  0  0  0  0  0  0  0  0  0  0
   -4.4961    1.8149    0.6023 H   0  0  0  0  0  0  0  0  0  0  0  0
   -4.4768    0.2891   -0.9158 C   0  0  0  0  0  0  0  0  0  0  0  0
   -4.0474    0.1124   -2.0427 O   0  0  0  0  0  0  0  0  0  0  0  0
   -4.5813   -0.7144   -0.0203 N   0  0  0  0  0  0  0  0  0  0  0  0
   -5.1174   -0.5669    0.8203 H   0  0  0  0  0  0  0  0  0  0  0  0
   -4.3900   -2.0903   -0.4486 C   0  0  1  0  0  0  0  0  0  0  0  0
   -3.3574   -2.1948   -0.8015 H   0  0  0  0  0  0  0  0  0  0  0  0
   -4.6743   -3.0469    0.6988 C   0  0  1  0  0  0  0  0  0  0  0  0
   -5.7208   -2.9742    0.9886 H   0  0  0  0  0  0  0  0  0  0  0  0
   -4.4729   -4.0676    0.3855 H   0  0  0  0  0  0  0  0  0  0  0  0
   -4.0456   -2.8128    1.5554 H   0  0  0  0  0  0  0  0  0  0  0  0
   -5.3608   -2.3457   -1.6178 C   0  0  0  0  0  0  0  0  0  0  0  0
   -6.5208   -1.9892   -1.5651 O   0  0  0  0  0  0  0  0  0  0  0  0
   -4.8119   -2.9887   -2.6610 N   0  0  0  0  0  0  0  0  0  0  0  0
   -3.8038   -3.1120   -2.6874 H   0  0  0  0  0  0  0  0  0  0  0  0
   -5.4712   -3.0598   -3.9487 C   0  0  1  0  0  0  0  0  0  0  0  0
   -5.7345   -4.0916   -4.2001 H   0  0  0  0  0  0  0  0  0  0  0  0
   -6.3828   -2.4573   -3.8980 H   0  0  0  0  0  0  0  0  0  0  0  0
   -4.4973   -2.5307   -4.9999 C   0  0  0  0  0  0  0  0  0  0  0  0
   -4.2305   -3.1358   -6.0184 O   0  0  0  0  0  0  0  0  0  0  0  0
   -3.9296   -1.3512   -4.6599 N   0  0  0  0  0  0  0  0  0  0  0  0
   -4.1278   -0.9559   -3.7449 H   0  0  0  0  0  0  0  0  0  0  0  0
   -2.6044   -1.0498   -5.1539 C   0  0  1  0  0  0  0  0  0  0  0  0
   -2.6006   -1.2195   -6.2351 H   0  0  0  0  0  0  0  0  0  0  0  0
   -2.2425    0.3886   -4.8023 C   0  0  1  0  0  0  0  0  0  0  0  0
   -2.4068    0.5450   -3.7389 H   0  0  0  0  0  0  0  0  0  0  0  0
   -1.2032    0.6044   -5.0346 H   0  0  0  0  0  0  0  0  0  0  0  0
   -2.8802    1.0736   -5.3548 H   0  0  0  0  0  0  0  0  0  0  0  0
   -1.6398   -2.0399   -4.4828 C   0  0  0  0  0  0  0  0  0  0  0  0
   -1.9258   -2.6043   -3.4391 O   0  0  0  0  0  0  0  0  0  0  0  0
   -0.4571   -2.2567   -5.0849 N   0  0  0  0  0  0  0  0  0  0  0  0
    0.1128   -2.9638   -4.6406 H   0  0  0  0  0  0  0  0  0  0  0  0
   -0.0638   -1.8442   -6.4114 C   0  0  1  0  0  0  0  0  0  0  0  0
    0.9863   -2.0881   -6.5554 H   0  0  0  0  0  0  0  0  0  0  0  0
   -0.6511   -2.3583   -7.1778 H   0  0  0  0  0  0  0  0  0  0  0  0
   -0.1886   -0.7696   -6.5371 H   0  0  0  0  0  0  0  0  0  0  0  0
  2  1  1  6
  2  3  1  0
  2  4  1  0
  2  5  1  0
  5  7  1  0
  5  6  1  0
  7  8  1  0
  7  9  1  0
  9 15  1  0
  9 11  1  0
  9 10  1  6
 11 12  1  1
 11 14  1  0
 11 13  1  0
 15 16  1  0
 15 17  1  0
 17 19  1  0
 17 18  1  0
 19 20  1  6
 19 21  1  0
 19 22  1  0
 22 24  1  0
 22 23  1  0
 24 25  1  0
 24 26  1  0
 26 32  1  0
 26 28  1  0
 26 27  1  6
 28 29  1  1
 28 31  1  0
 28 30  1  0
 32 33  1  0
 32 34  1  0
 34 36  1  0
 34 35  1  0
 36 39  1  1
 36 37  1  0
 36 38  1  0
M  END
$$$$
