 energy: -61.778959318259 gnorm: 0.000036064663 xtb: 6.5.1 (9af7eec)
     RDKit          3D

 39 38  0  0  0  0  0  0  0  0999 V2000
   -2.9248    1.1223    2.8196 H   0  0  0  0  0  0  0  0  0  0  0  0
   -3.1721    1.3559    1.7883 C   0  0  1  0  0  0  0  0  0  0  0  0
   -2.3449    1.0968    1.1336 H   0  0  0  0  0  0  0  0  0  0  0  0
   -3.3604    2.4250    1.7080 H   0  0  0  0  0  0  0  0  0  0  0  0
   -4.4243    0.6042    1.3879 C   0  0  0  0  0  0  0  0  0  0  0  0
   -5.2172    0.1493    2.1845 O   0  0  0  0  0  0  0  0  0  0  0  0
   -4.5945    0.5441    0.0421 N   0  0  0  0  0  0  0  0  0  0  0  0
   -3.7818    0.7436   -0.5300 H   0  0  0  0  0  0  0  0  0  0  0  0
   -5.6513   -0.2542   -0.5662 C   0  0  1  0  0  0  0  0  0  0  0  0
   -5.5808   -1.2942   -0.2180 H   0  0  0  0  0  0  0  0  0  0  0  0
   -7.0390    0.2852   -0.2090 C   0  0  1  0  0  0  0  0  0  0  0  0
   -7.1471    1.3235   -0.5138 H   0  0  0  0  0  0  0  0  0  0  0  0
   -7.8028   -0.3114   -0.7007 H   0  0  0  0  0  0  0  0  0  0  0  0
   -7.1722    0.2206    0.8670 H   0  0  0  0  0  0  0  0  0  0  0  0
   -5.4318   -0.2472   -2.0719 C   0  0  0  0  0  0  0  0  0  0  0  0
   -5.2430   -1.2577   -2.7266 O   0  0  0  0  0  0  0  0  0  0  0  0
   -5.4651    0.9827   -2.6251 N   0  0  0  0  0  0  0  0  0  0  0  0
   -5.4581    1.7823   -2.0109 H   0  0  0  0  0  0  0  0  0  0  0  0
   -5.1069    1.2078   -4.0118 C   0  0  1  0  0  0  0  0  0  0  0  0
   -5.5005    0.3803   -4.6065 H   0  0  0  0  0  0  0  0  0  0  0  0
   -5.5306    2.1539   -4.3483 H   0  0  0  0  0  0  0  0  0  0  0  0
   -3.5785    1.2543   -4.1022 C   0  0  1  0  0  0  0  0  0  0  0  0
   -2.9500    2.2835   -4.2486 O   0  0  0  0  0  0  0  0  0  0  0  0
   -3.0091    0.0462   -3.9274 N   0  0  0  0  0  0  0  0  0  0  0  0
   -3.6131   -0.7395   -3.7102 H   0  0  0  0  0  0  0  0  0  0  0  0
   -1.5946   -0.0355   -3.5911 C   0  0  1  0  0  0  0  0  0  0  0  0
   -1.4231   -1.0243   -3.1524 H   0  0  0  0  0  0  0  0  0  0  0  0
   -0.7337    0.1321   -4.8393 C   0  0  1  0  0  0  0  0  0  0  0  0
   -0.9199    1.1005   -5.2978 H   0  0  0  0  0  0  0  0  0  0  0  0
    0.3219    0.0218   -4.6028 H   0  0  0  0  0  0  0  0  0  0  0  0
   -1.0040   -0.6382   -5.5582 H   0  0  0  0  0  0  0  0  0  0  0  0
   -1.3672    0.9904   -2.4636 C   0  0  0  0  0  0  0  0  0  0  0  0
   -2.0705    0.9454   -1.4652 O   0  0  0  0  0  0  0  0  0  0  0  0
   -0.3735    1.8694   -2.6200 N   0  0  0  0  0  0  0  0  0  0  0  0
    0.0675    1.9526   -3.5209 H   0  0  0  0  0  0  0  0  0  0  0  0
   -0.1255    2.9312   -1.6738 C   0  0  1  0  0  0  0  0  0  0  0  0
   -0.4655    3.8896   -2.0704 H   0  0  0  0  0  0  0  0  0  0  0  0
   -0.6780    2.7068   -0.7634 H   0  0  0  0  0  0  0  0  0  0  0  0
    0.9401    2.9881   -1.4509 H   0  0  0  0  0  0  0  0  0  0  0  0
  2  1  1  1
  2  3  1  0
  2  4  1  0
  2  5  1  0
  5  7  1  0
  5  6  1  0
  7  8  1  0
  7  9  1  0
  9 15  1  0
  9 11  1  0
  9 10  1  1
 11 12  1  6
 11 14  1  0
 11 13  1  0
 15 16  1  0
 15 17  1  0
 17 19  1  0
 17 18  1  0
 19 20  1  6
 19 21  1  0
 19 22  1  0
 22 24  1  0
 22 23  1  1
 24 25  1  0
 24 26  1  0
 26 32  1  0
 26 28  1  0
 26 27  1  1
 28 29  1  6
 28 31  1  0
 28 30  1  0
 32 33  1  0
 32 34  1  0
 34 36  1  0
 34 35  1  0
 36 39  1  1
 36 37  1  0
 36 38  1  0
M  END
$$$$
