-42.53874713
     RDKit          3D

 29 28  0  0  1  0  0  0  0  0999 V2000
    0.7049   -0.0976    0.4113 N   0  0  0  0  0  0  0  0  0  0  0  0
    0.7473   -0.6963    1.2216 H   0  0  0  0  0  0  0  0  0  0  0  0
   -0.4074    0.8279    0.3615 C   0  0  1  0  0  0  0  0  0  0  0  0
   -0.4115    1.2655   -0.6430 H   0  0  0  0  0  0  0  0  0  0  0  0
   -1.7414    0.1201    0.6199 C   0  0  2  0  0  0  0  0  0  0  0  0
   -2.5170    0.8853    0.6898 H   0  0  0  0  0  0  0  0  0  0  0  0
   -1.6984   -0.3879    1.5849 H   0  0  0  0  0  0  0  0  0  0  0  0
   -2.1179   -0.8658   -0.4757 C   0  0  2  0  0  0  0  0  0  0  0  0
   -1.9287   -0.4430   -1.4613 H   0  0  0  0  0  0  0  0  0  0  0  0
   -3.1716   -1.1337   -0.3923 H   0  0  0  0  0  0  0  0  0  0  0  0
   -1.1657   -2.4336   -0.3834 S   0  0  0  0  0  0  0  0  0  0  0  0
   -0.7305   -2.6374   -2.1338 C   0  0  2  0  0  0  0  0  0  0  0  0
   -0.1567   -3.5555   -2.2089 H   0  0  0  0  0  0  0  0  0  0  0  0
   -0.1290   -1.7935   -2.4604 H   0  0  0  0  0  0  0  0  0  0  0  0
   -1.6385   -2.7208   -2.7247 H   0  0  0  0  0  0  0  0  0  0  0  0
   -0.1961    1.9277    1.4146 C   0  0  0  0  0  0  0  0  0  0  0  0
   -0.8461    1.9694    2.4409 O   0  0  0  0  0  0  0  0  0  0  0  0
    0.7608    2.8411    1.1669 N   0  0  0  0  0  0  0  0  0  0  0  0
    0.8640    3.5292    1.9024 H   0  0  0  0  0  0  0  0  0  0  0  0
    1.4732   -0.3861   -0.6614 C   0  0  0  0  0  0  0  0  0  0  0  0
    1.3931    0.2344   -1.7059 O   0  0  0  0  0  0  0  0  0  0  0  0
    2.4418   -1.5200   -0.4275 C   0  0  2  0  0  0  0  0  0  0  0  0
    3.0524   -1.6646   -1.3139 H   0  0  0  0  0  0  0  0  0  0  0  0
    1.8873   -2.4321   -0.2156 H   0  0  0  0  0  0  0  0  0  0  0  0
    3.0830   -1.2957    0.4216 H   0  0  0  0  0  0  0  0  0  0  0  0
    1.6466    3.0026    0.0401 C   0  0  1  0  0  0  0  0  0  0  0  0
    2.6857    2.9292    0.3696 H   0  0  0  0  0  0  0  0  0  0  0  0
    1.4745    2.2426   -0.7157 H   0  0  0  0  0  0  0  0  0  0  0  0
    1.4964    3.9854   -0.4125 H   0  0  0  0  0  0  0  0  0  0  0  0
  1  2  1  0
  3  4  1  6
  3  1  1  0
  3  5  1  0
  3 16  1  0
  5  6  1  1
  5  7  1  0
  8 10  1  6
  8 11  1  0
  8  5  1  0
  9  8  1  0
 12 11  1  0
 12 13  1  1
 14 12  1  0
 15 12  1  0
 16 17  2  0
 18 16  1  0
 18 19  1  0
 20 22  1  0
 20  1  1  0
 21 20  2  0
 22 24  1  1
 22 25  1  0
 23 22  1  0
 26 27  1  1
 26 18  1  0
 28 26  1  0
 29 26  1  0
M  END
$$$$
