-47.84556093
     RDKit          3D

 32 32  0  0  1  0  0  0  0  0999 V2000
    1.1812    0.0693    0.2328 N   0  0  0  0  0  0  0  0  0  0  0  0
    0.6840    0.3250   -1.0982 C   0  0  2  0  0  0  0  0  0  0  0  0
    0.2382    1.7931   -1.2079 C   0  0  0  0  0  0  0  0  0  0  0  0
   -0.8454    2.1222   -1.6437 O   0  0  0  0  0  0  0  0  0  0  0  0
   -0.4759   -0.6262   -1.4799 C   0  0  2  0  0  0  0  0  0  0  0  0
   -1.3986   -0.8726   -0.3175 C   0  0  0  0  0  0  0  0  0  0  0  0
   -1.1670   -1.9371    0.5455 C   0  0  0  0  0  0  0  0  0  0  0  0
   -2.4705   -0.0246   -0.0687 C   0  0  0  0  0  0  0  0  0  0  0  0
   -1.9890   -2.1498    1.6379 C   0  0  0  0  0  0  0  0  0  0  0  0
   -3.2935   -0.2381    1.0229 C   0  0  0  0  0  0  0  0  0  0  0  0
   -3.0544   -1.2997    1.8793 C   0  0  0  0  0  0  0  0  0  0  0  0
    0.5880    0.3949    0.9854 H   0  0  0  0  0  0  0  0  0  0  0  0
    1.5016    0.1903   -1.8157 H   0  0  0  0  0  0  0  0  0  0  0  0
   -0.0583   -1.5758   -1.8193 H   0  0  0  0  0  0  0  0  0  0  0  0
   -1.0246   -0.1658   -2.3020 H   0  0  0  0  0  0  0  0  0  0  0  0
   -0.3371   -2.6060    0.3643 H   0  0  0  0  0  0  0  0  0  0  0  0
   -2.6485    0.8084   -0.7316 H   0  0  0  0  0  0  0  0  0  0  0  0
   -1.7953   -2.9795    2.3015 H   0  0  0  0  0  0  0  0  0  0  0  0
   -4.1250    0.4270    1.2056 H   0  0  0  0  0  0  0  0  0  0  0  0
   -3.6970   -1.4651    2.7317 H   0  0  0  0  0  0  0  0  0  0  0  0
    1.1326    2.7237   -0.8174 N   0  0  0  0  0  0  0  0  0  0  0  0
    0.7844    3.6708   -0.8723 H   0  0  0  0  0  0  0  0  0  0  0  0
    2.4903    2.5550   -0.3594 C   0  0  1  0  0  0  0  0  0  0  0  0
    2.5329    2.2557    0.6905 H   0  0  0  0  0  0  0  0  0  0  0  0
    3.0059    1.8014   -0.9542 H   0  0  0  0  0  0  0  0  0  0  0  0
    3.0170    3.5003   -0.4740 H   0  0  0  0  0  0  0  0  0  0  0  0
    2.1507   -0.7953    0.6259 C   0  0  0  0  0  0  0  0  0  0  0  0
    2.3629   -0.9833    1.8046 O   0  0  0  0  0  0  0  0  0  0  0  0
    2.9592   -1.4536   -0.4702 C   0  0  2  0  0  0  0  0  0  0  0  0
    3.5042   -0.7087   -1.0466 H   0  0  0  0  0  0  0  0  0  0  0  0
    2.3133   -2.0159   -1.1397 H   0  0  0  0  0  0  0  0  0  0  0  0
    3.6729   -2.1305   -0.0094 H   0  0  0  0  0  0  0  0  0  0  0  0
  1 27  1  0
  1 12  1  0
  2 13  1  6
  2  1  1  0
  3  2  1  0
  3 21  1  0
  4  3  2  0
  5  2  1  0
  5  6  1  0
  6  8  2  0
  6  7  1  0
  7  9  2  0
  8 10  1  0
  9 11  1  0
  9 18  1  0
 10 19  1  0
 10 11  2  0
 11 20  1  0
  5 14  1  6
 15  5  1  0
 16  7  1  0
 17  8  1  0
 21 23  1  0
 22 21  1  0
 23 24  1  1
 25 23  1  0
 26 23  1  0
 27 28  2  0
 29 32  1  1
 29 27  1  0
 30 29  1  0
 31 29  1  0
M  END
$$$$
