-47.84858769
     RDKit          3D

 32 32  0  0  1  0  0  0  0  0999 V2000
    1.5163   -0.0411    0.3593 N   0  0  0  0  0  0  0  0  0  0  0  0
    0.6079    0.9490   -0.1493 C   0  0  2  0  0  0  0  0  0  0  0  0
    1.2878    2.3165   -0.0198 C   0  0  0  0  0  0  0  0  0  0  0  0
    2.0790    2.5453    0.8711 O   0  0  0  0  0  0  0  0  0  0  0  0
   -0.6893    0.9983    0.7026 C   0  0  2  0  0  0  0  0  0  0  0  0
   -1.4449   -0.2919    0.5811 C   0  0  0  0  0  0  0  0  0  0  0  0
   -2.3895   -0.4643   -0.4238 C   0  0  0  0  0  0  0  0  0  0  0  0
   -1.1672   -1.3540    1.4330 C   0  0  0  0  0  0  0  0  0  0  0  0
   -3.0445   -1.6737   -0.5750 C   0  0  0  0  0  0  0  0  0  0  0  0
   -1.8179   -2.5653    1.2793 C   0  0  0  0  0  0  0  0  0  0  0  0
   -2.7563   -2.7285    0.2745 C   0  0  0  0  0  0  0  0  0  0  0  0
    2.0478    0.2645    1.1676 H   0  0  0  0  0  0  0  0  0  0  0  0
    0.3628    0.7272   -1.1887 H   0  0  0  0  0  0  0  0  0  0  0  0
   -1.3057    1.8351    0.3688 H   0  0  0  0  0  0  0  0  0  0  0  0
   -0.4000    1.1750    1.7398 H   0  0  0  0  0  0  0  0  0  0  0  0
   -2.6166    0.3556   -1.0921 H   0  0  0  0  0  0  0  0  0  0  0  0
   -0.4345   -1.2327    2.2165 H   0  0  0  0  0  0  0  0  0  0  0  0
   -3.7784   -1.7934   -1.3586 H   0  0  0  0  0  0  0  0  0  0  0  0
   -1.5892   -3.3842    1.9445 H   0  0  0  0  0  0  0  0  0  0  0  0
   -3.2637   -3.6739    0.1540 H   0  0  0  0  0  0  0  0  0  0  0  0
    0.9289    3.2688   -0.9051 N   0  0  0  0  0  0  0  0  0  0  0  0
    1.4148    4.1470   -0.7887 H   0  0  0  0  0  0  0  0  0  0  0  0
    0.0809    3.1331   -2.0650 C   0  0  1  0  0  0  0  0  0  0  0  0
    0.5529    2.5214   -2.8398 H   0  0  0  0  0  0  0  0  0  0  0  0
   -0.8772    2.6856   -1.7991 H   0  0  0  0  0  0  0  0  0  0  0  0
   -0.1076    4.1215   -2.4769 H   0  0  0  0  0  0  0  0  0  0  0  0
    1.7935   -1.2844   -0.0968 C   0  0  0  0  0  0  0  0  0  0  0  0
    2.5861   -1.9935    0.4861 O   0  0  0  0  0  0  0  0  0  0  0  0
    1.0815   -1.7217   -1.3603 C   0  0  2  0  0  0  0  0  0  0  0  0
    1.3772   -1.0884   -2.1948 H   0  0  0  0  0  0  0  0  0  0  0  0
    0.0030   -1.6759   -1.2361 H   0  0  0  0  0  0  0  0  0  0  0  0
    1.3731   -2.7453   -1.5768 H   0  0  0  0  0  0  0  0  0  0  0  0
  1 12  1  0
  2 13  1  6
  2  3  1  0
  2  1  1  0
  2  5  1  0
  3  4  2  0
  5 15  1  1
  6  5  1  0
  6  8  2  0
  7  6  1  0
  8 17  1  0
  9  7  2  0
  9 11  1  0
 10  8  1  0
 10 19  1  0
 11 10  2  0
 14  5  1  0
 16  7  1  0
 18  9  1  0
 20 11  1  0
 21 22  1  0
 21  3  1  0
 23 25  1  1
 23 21  1  0
 24 23  1  0
 26 23  1  0
 27  1  1  0
 27 28  2  0
 29 31  1  1
 29 27  1  0
 30 29  1  0
 32 29  1  0
M  END
$$$$
