-47.84114579
     RDKit          3D

 32 32  0  0  1  0  0  0  0  0999 V2000
    2.2431    0.1081    0.1976 N   0  0  0  0  0  0  0  0  0  0  0  0
    0.9538   -0.1301   -0.4063 C   0  0  2  0  0  0  0  0  0  0  0  0
    0.2195    1.1947   -0.6656 C   0  0  0  0  0  0  0  0  0  0  0  0
   -0.0904    1.5030   -1.7989 O   0  0  0  0  0  0  0  0  0  0  0  0
    0.0968   -1.1396    0.4067 C   0  0  2  0  0  0  0  0  0  0  0  0
   -1.3765   -0.8768    0.2550 C   0  0  0  0  0  0  0  0  0  0  0  0
   -1.9707   -0.9288   -1.0009 C   0  0  0  0  0  0  0  0  0  0  0  0
   -2.1635   -0.5664    1.3558 C   0  0  0  0  0  0  0  0  0  0  0  0
   -3.3177   -0.6572   -1.1523 C   0  0  0  0  0  0  0  0  0  0  0  0
   -3.5135   -0.3001    1.2062 C   0  0  0  0  0  0  0  0  0  0  0  0
   -4.0926   -0.3385   -0.0496 C   0  0  0  0  0  0  0  0  0  0  0  0
    2.3130    0.8624    0.8656 H   0  0  0  0  0  0  0  0  0  0  0  0
    1.1140   -0.5402   -1.4080 H   0  0  0  0  0  0  0  0  0  0  0  0
    0.3789   -1.0989    1.4605 H   0  0  0  0  0  0  0  0  0  0  0  0
    0.3234   -2.1489    0.0542 H   0  0  0  0  0  0  0  0  0  0  0  0
   -1.3742   -1.1741   -1.8662 H   0  0  0  0  0  0  0  0  0  0  0  0
   -1.7215   -0.5408    2.3423 H   0  0  0  0  0  0  0  0  0  0  0  0
   -3.7640   -0.6935   -2.1346 H   0  0  0  0  0  0  0  0  0  0  0  0
   -4.1125   -0.0610    2.0729 H   0  0  0  0  0  0  0  0  0  0  0  0
   -5.1444   -0.1248   -0.1685 H   0  0  0  0  0  0  0  0  0  0  0  0
   -0.0575    2.0241    0.3594 N   0  0  0  0  0  0  0  0  0  0  0  0
   -0.5244    2.8710    0.0607 H   0  0  0  0  0  0  0  0  0  0  0  0
    0.1690    1.9177    1.7787 C   0  0  1  0  0  0  0  0  0  0  0  0
   -0.7594    2.1326    2.3114 H   0  0  0  0  0  0  0  0  0  0  0  0
    0.4930    0.9188    2.0488 H   0  0  0  0  0  0  0  0  0  0  0  0
    0.9260    2.6391    2.1026 H   0  0  0  0  0  0  0  0  0  0  0  0
    3.4197   -0.5306   -0.0288 C   0  0  0  0  0  0  0  0  0  0  0  0
    4.4144   -0.1965    0.5798 O   0  0  0  0  0  0  0  0  0  0  0  0
    3.4036   -1.6443   -1.0475 C   0  0  2  0  0  0  0  0  0  0  0  0
    2.6687   -2.4000   -0.7828 H   0  0  0  0  0  0  0  0  0  0  0  0
    4.3905   -2.0969   -1.0788 H   0  0  0  0  0  0  0  0  0  0  0  0
    3.1660   -1.2454   -2.0316 H   0  0  0  0  0  0  0  0  0  0  0  0
  1 12  1  0
  2 13  1  6
  2  1  1  0
  2  5  1  0
  3  2  1  0
  3 21  1  0
  4  3  2  0
  5 14  1  1
  6  5  1  0
  6  8  2  0
  7  6  1  0
  8 17  1  0
  9  7  2  0
  9 11  1  0
 10  8  1  0
 10 19  1  0
 11 10  2  0
 15  5  1  0
 16  7  1  0
 18  9  1  0
 20 11  1  0
 21 23  1  0
 22 21  1  0
 23 25  1  6
 23 26  1  0
 23 24  1  0
 27  1  1  0
 27 28  2  0
 29 30  1  1
 29 27  1  0
 31 29  1  0
 32 29  1  0
M  END
$$$$
