-42.54063297
     RDKit          3D

 29 28  0  0  1  0  0  0  0  0999 V2000
    1.7071   -0.2599    0.5785 N   0  0  0  0  0  0  0  0  0  0  0  0
    2.1103   -0.1866    1.5024 H   0  0  0  0  0  0  0  0  0  0  0  0
    0.3267    0.1666    0.4774 C   0  0  1  0  0  0  0  0  0  0  0  0
    0.1709    0.5799   -0.5222 H   0  0  0  0  0  0  0  0  0  0  0  0
   -0.6091   -1.0393    0.6932 C   0  0  2  0  0  0  0  0  0  0  0  0
   -0.5835   -1.3185    1.7501 H   0  0  0  0  0  0  0  0  0  0  0  0
   -0.2088   -1.8732    0.1133 H   0  0  0  0  0  0  0  0  0  0  0  0
   -2.0505   -0.7856    0.2881 C   0  0  2  0  0  0  0  0  0  0  0  0
   -2.4983    0.0077    0.8864 H   0  0  0  0  0  0  0  0  0  0  0  0
   -2.6400   -1.6954    0.4122 H   0  0  0  0  0  0  0  0  0  0  0  0
   -2.2550   -0.2353   -1.4435 S   0  0  0  0  0  0  0  0  0  0  0  0
   -1.3935   -1.5541   -2.3426 C   0  0  2  0  0  0  0  0  0  0  0  0
   -1.7667   -2.5166   -2.0039 H   0  0  0  0  0  0  0  0  0  0  0  0
   -0.3198   -1.4670   -2.1971 H   0  0  0  0  0  0  0  0  0  0  0  0
   -1.6362   -1.4107   -3.3904 H   0  0  0  0  0  0  0  0  0  0  0  0
    0.1173    1.1943    1.5874 C   0  0  0  0  0  0  0  0  0  0  0  0
    0.5794    0.9909    2.6973 O   0  0  0  0  0  0  0  0  0  0  0  0
   -0.5942    2.3016    1.3208 N   0  0  0  0  0  0  0  0  0  0  0  0
   -0.6571    2.9415    2.1015 H   0  0  0  0  0  0  0  0  0  0  0  0
    2.3489   -0.8916   -0.4258 C   0  0  0  0  0  0  0  0  0  0  0  0
    1.8284   -1.0984   -1.5046 O   0  0  0  0  0  0  0  0  0  0  0  0
    3.7657   -1.2975   -0.0848 C   0  0  2  0  0  0  0  0  0  0  0  0
    4.3330   -0.4329    0.2511 H   0  0  0  0  0  0  0  0  0  0  0  0
    4.2394   -1.7238   -0.9641 H   0  0  0  0  0  0  0  0  0  0  0  0
    3.7556   -2.0387    0.7116 H   0  0  0  0  0  0  0  0  0  0  0  0
   -1.0548    2.7939    0.0421 C   0  0  1  0  0  0  0  0  0  0  0  0
   -0.2212    3.1530   -0.5679 H   0  0  0  0  0  0  0  0  0  0  0  0
   -1.5867    2.0203   -0.5107 H   0  0  0  0  0  0  0  0  0  0  0  0
   -1.7382    3.6212    0.2163 H   0  0  0  0  0  0  0  0  0  0  0  0
  1  2  1  0
  3  4  1  6
  3  1  1  0
  3  5  1  0
  3 16  1  0
  5  6  1  1
  7  5  1  0
  8 10  1  6
  8  5  1  0
  8  9  1  0
 11  8  1  0
 12 14  1  6
 12 13  1  0
 12 11  1  0
 15 12  1  0
 16 17  2  0
 18 16  1  0
 18 19  1  0
 20 22  1  0
 20  1  1  0
 21 20  2  0
 22 23  1  1
 22 25  1  0
 24 22  1  0
 26 29  1  1
 26 18  1  0
 27 26  1  0
 28 26  1  0
M  END
$$$$
