-42.53587934
     RDKit          3D

 29 28  0  0  1  0  0  0  0  0999 V2000
    1.2343   -0.4109    0.3290 N   0  0  0  0  0  0  0  0  0  0  0  0
    1.2086   -0.9485    1.1822 H   0  0  0  0  0  0  0  0  0  0  0  0
    0.2230    0.6211    0.2023 C   0  0  1  0  0  0  0  0  0  0  0  0
    0.2986    1.0154   -0.8125 H   0  0  0  0  0  0  0  0  0  0  0  0
   -1.1710    0.0399    0.4468 C   0  0  2  0  0  0  0  0  0  0  0  0
   -1.9039    0.8476    0.4087 H   0  0  0  0  0  0  0  0  0  0  0  0
   -1.2081   -0.3888    1.4502 H   0  0  0  0  0  0  0  0  0  0  0  0
   -1.5190   -1.0144   -0.5900 C   0  0  2  0  0  0  0  0  0  0  0  0
   -0.7986   -1.8339   -0.5732 H   0  0  0  0  0  0  0  0  0  0  0  0
   -1.5467   -0.5807   -1.5912 H   0  0  0  0  0  0  0  0  0  0  0  0
   -3.1702   -1.7178   -0.2423 S   0  0  0  0  0  0  0  0  0  0  0  0
   -3.2747   -2.8504   -1.6565 C   0  0  2  0  0  0  0  0  0  0  0  0
   -3.2260   -2.2830   -2.5819 H   0  0  0  0  0  0  0  0  0  0  0  0
   -4.2296   -3.3593   -1.5823 H   0  0  0  0  0  0  0  0  0  0  0  0
   -2.4636   -3.5718   -1.6068 H   0  0  0  0  0  0  0  0  0  0  0  0
    0.5242    1.7010    1.2541 C   0  0  0  0  0  0  0  0  0  0  0  0
    0.2978    1.5078    2.4333 O   0  0  0  0  0  0  0  0  0  0  0  0
    1.0911    2.8411    0.8243 N   0  0  0  0  0  0  0  0  0  0  0  0
    1.2641    3.5184    1.5544 H   0  0  0  0  0  0  0  0  0  0  0  0
    2.3122   -0.4814   -0.4836 C   0  0  0  0  0  0  0  0  0  0  0  0
    2.4612    0.2582   -1.4366 O   0  0  0  0  0  0  0  0  0  0  0  0
    3.2895   -1.5721   -0.1072 C   0  0  2  0  0  0  0  0  0  0  0  0
    3.7654   -1.3244    0.8396 H   0  0  0  0  0  0  0  0  0  0  0  0
    4.0514   -1.6531   -0.8767 H   0  0  0  0  0  0  0  0  0  0  0  0
    2.7761   -2.5247   -0.0011 H   0  0  0  0  0  0  0  0  0  0  0  0
    1.4645    3.2167   -0.5217 C   0  0  1  0  0  0  0  0  0  0  0  0
    0.5908    3.5258   -1.1026 H   0  0  0  0  0  0  0  0  0  0  0  0
    2.1563    4.0538   -0.4685 H   0  0  0  0  0  0  0  0  0  0  0  0
    1.9620    2.3917   -1.0338 H   0  0  0  0  0  0  0  0  0  0  0  0
  1  2  1  0
  3  4  1  6
  3  1  1  0
  3  5  1  0
  3 16  1  0
  5  7  1  1
  6  5  1  0
  8  9  1  6
  8 11  1  0
  8  5  1  0
 10  8  1  0
 12 15  1  6
 12 14  1  0
 12 11  1  0
 13 12  1  0
 16 17  2  0
 18 16  1  0
 18 19  1  0
 20 22  1  0
 20  1  1  0
 21 20  2  0
 22 25  1  1
 22 23  1  0
 24 22  1  0
 26 28  1  1
 26 18  1  0
 27 26  1  0
 29 26  1  0
M  END
$$$$
