-47.84820532
     RDKit          3D

 32 32  0  0  1  0  0  0  0  0999 V2000
    1.5025   -0.4547    0.5596 N   0  0  0  0  0  0  0  0  0  0  0  0
    1.0170   -0.7426   -0.7625 C   0  0  2  0  0  0  0  0  0  0  0  0
    0.6404    0.4779   -1.6197 C   0  0  0  0  0  0  0  0  0  0  0  0
    0.6976    0.3868   -2.8324 O   0  0  0  0  0  0  0  0  0  0  0  0
   -0.1832   -1.7123   -0.7031 C   0  0  2  0  0  0  0  0  0  0  0  0
   -1.3769   -1.0998   -0.0291 C   0  0  0  0  0  0  0  0  0  0  0  0
   -1.5969   -1.2765    1.3325 C   0  0  0  0  0  0  0  0  0  0  0  0
   -2.2655   -0.3157   -0.7567 C   0  0  0  0  0  0  0  0  0  0  0  0
   -2.6715   -0.6666    1.9579 C   0  0  0  0  0  0  0  0  0  0  0  0
   -3.3391    0.2936   -0.1326 C   0  0  0  0  0  0  0  0  0  0  0  0
   -3.5409    0.1248    1.2276 C   0  0  0  0  0  0  0  0  0  0  0  0
    0.8494   -0.5665    1.3234 H   0  0  0  0  0  0  0  0  0  0  0  0
    1.8083   -1.2472   -1.3328 H   0  0  0  0  0  0  0  0  0  0  0  0
    0.1328   -2.6116   -0.1705 H   0  0  0  0  0  0  0  0  0  0  0  0
   -0.4346   -1.9838   -1.7295 H   0  0  0  0  0  0  0  0  0  0  0  0
   -0.9346   -1.9096    1.9077 H   0  0  0  0  0  0  0  0  0  0  0  0
   -2.1111   -0.1856   -1.8179 H   0  0  0  0  0  0  0  0  0  0  0  0
   -2.8296   -0.8122    3.0162 H   0  0  0  0  0  0  0  0  0  0  0  0
   -4.0225    0.8992   -0.7090 H   0  0  0  0  0  0  0  0  0  0  0  0
   -4.3784    0.6010    1.7149 H   0  0  0  0  0  0  0  0  0  0  0  0
    0.2489    1.6330   -1.0479 N   0  0  0  0  0  0  0  0  0  0  0  0
    0.0521    2.3504   -1.7330 H   0  0  0  0  0  0  0  0  0  0  0  0
    0.0592    2.0077    0.3352 C   0  0  1  0  0  0  0  0  0  0  0  0
   -0.4757    2.9545    0.3602 H   0  0  0  0  0  0  0  0  0  0  0  0
   -0.5399    1.2677    0.8642 H   0  0  0  0  0  0  0  0  0  0  0  0
    1.0112    2.1359    0.8553 H   0  0  0  0  0  0  0  0  0  0  0  0
    2.6993    0.0836    0.8993 C   0  0  0  0  0  0  0  0  0  0  0  0
    2.9407    0.3649    2.0558 O   0  0  0  0  0  0  0  0  0  0  0  0
    3.6781    0.2908   -0.2314 C   0  0  2  0  0  0  0  0  0  0  0  0
    3.2299    0.8768   -1.0305 H   0  0  0  0  0  0  0  0  0  0  0  0
    3.9832   -0.6716   -0.6377 H   0  0  0  0  0  0  0  0  0  0  0  0
    4.5541    0.8054    0.1530 H   0  0  0  0  0  0  0  0  0  0  0  0
  1 27  1  0
  1 12  1  0
  2 13  1  6
  2  5  1  0
  2  1  1  0
  3 21  1  0
  3  2  1  0
  4  3  2  0
  5 14  1  1
  5  6  1  0
  6  7  2  0
  7 16  1  0
  7  9  1  0
  8 10  2  0
  8  6  1  0
  9 18  1  0
 10 11  1  0
 11 20  1  0
 11  9  2  0
 15  5  1  0
 17  8  1  0
 19 10  1  0
 21 23  1  0
 22 21  1  0
 23 24  1  6
 23 26  1  0
 23 25  1  0
 27 28  2  0
 29 32  1  1
 29 27  1  0
 30 29  1  0
 31 29  1  0
M  END
$$$$
