-47.84586452
     RDKit          3D

 32 32  0  0  1  0  0  0  0  0999 V2000
    1.0321   -0.1195    0.4137 N   0  0  0  0  0  0  0  0  0  0  0  0
    0.3843    0.4621   -0.7379 C   0  0  2  0  0  0  0  0  0  0  0  0
    1.1310    1.6411   -1.3804 C   0  0  0  0  0  0  0  0  0  0  0  0
    1.2220    1.7105   -2.5912 O   0  0  0  0  0  0  0  0  0  0  0  0
   -1.0338    0.9331   -0.3628 C   0  0  2  0  0  0  0  0  0  0  0  0
   -1.8565   -0.2206    0.1397 C   0  0  0  0  0  0  0  0  0  0  0  0
   -2.0778   -0.3985    1.4994 C   0  0  0  0  0  0  0  0  0  0  0  0
   -2.3697   -1.1548   -0.7522 C   0  0  0  0  0  0  0  0  0  0  0  0
   -2.7966   -1.4887    1.9598 C   0  0  0  0  0  0  0  0  0  0  0  0
   -3.0884   -2.2434   -0.2940 C   0  0  0  0  0  0  0  0  0  0  0  0
   -3.3007   -2.4146    1.0641 C   0  0  0  0  0  0  0  0  0  0  0  0
    0.4571   -0.2358    1.2391 H   0  0  0  0  0  0  0  0  0  0  0  0
    0.2952   -0.2880   -1.5378 H   0  0  0  0  0  0  0  0  0  0  0  0
   -1.4913    1.3626   -1.2561 H   0  0  0  0  0  0  0  0  0  0  0  0
   -0.9697    1.7097    0.4010 H   0  0  0  0  0  0  0  0  0  0  0  0
   -1.7001    0.3278    2.2071 H   0  0  0  0  0  0  0  0  0  0  0  0
   -2.2066   -1.0224   -1.8121 H   0  0  0  0  0  0  0  0  0  0  0  0
   -2.9606   -1.6143    3.0198 H   0  0  0  0  0  0  0  0  0  0  0  0
   -3.4834   -2.9613   -0.9975 H   0  0  0  0  0  0  0  0  0  0  0  0
   -3.8596   -3.2661    1.4221 H   0  0  0  0  0  0  0  0  0  0  0  0
    1.6489    2.6115   -0.6024 N   0  0  0  0  0  0  0  0  0  0  0  0
    2.0600    3.3671   -1.1364 H   0  0  0  0  0  0  0  0  0  0  0  0
    1.5882    2.8164    0.8241 C   0  0  1  0  0  0  0  0  0  0  0  0
    0.7580    3.4779    1.0924 H   0  0  0  0  0  0  0  0  0  0  0  0
    1.4767    1.8675    1.3401 H   0  0  0  0  0  0  0  0  0  0  0  0
    2.5170    3.2808    1.1549 H   0  0  0  0  0  0  0  0  0  0  0  0
    2.2060   -0.8050    0.4456 C   0  0  0  0  0  0  0  0  0  0  0  0
    2.5718   -1.3349    1.4740 O   0  0  0  0  0  0  0  0  0  0  0  0
    2.9959   -0.8266   -0.8375 C   0  0  2  0  0  0  0  0  0  0  0  0
    3.1964    0.1826   -1.1878 H   0  0  0  0  0  0  0  0  0  0  0  0
    2.4320   -1.3466   -1.6097 H   0  0  0  0  0  0  0  0  0  0  0  0
    3.9338   -1.3467   -0.6661 H   0  0  0  0  0  0  0  0  0  0  0  0
  1 27  1  0
  1 12  1  0
  2 13  1  6
  2  5  1  0
  2  1  1  0
  3  2  1  0
  3 21  1  0
  4  3  2  0
  5  6  1  0
  5 15  1  1
  6  7  2  0
  7  9  1  0
  7 16  1  0
  8 10  2  0
  8  6  1  0
  9 18  1  0
 10 11  1  0
 11 20  1  0
 11  9  2  0
 14  5  1  0
 17  8  1  0
 19 10  1  0
 21 23  1  0
 22 21  1  0
 23 24  1  6
 23 26  1  0
 23 25  1  0
 27 28  2  0
 29 32  1  1
 29 27  1  0
 30 29  1  0
 31 29  1  0
M  END
$$$$
