-42.53910332
     RDKit          3D

 29 28  0  0  1  0  0  0  0  0999 V2000
    0.6611   -0.2862    0.3939 N   0  0  0  0  0  0  0  0  0  0  0  0
    0.6344   -0.9395    1.1614 H   0  0  0  0  0  0  0  0  0  0  0  0
   -0.3781    0.7218    0.3762 C   0  0  1  0  0  0  0  0  0  0  0  0
   -0.3758    1.1723   -0.6198 H   0  0  0  0  0  0  0  0  0  0  0  0
   -1.7461    0.1080    0.6838 C   0  0  2  0  0  0  0  0  0  0  0  0
   -2.4625    0.9244    0.8039 H   0  0  0  0  0  0  0  0  0  0  0  0
   -1.6884   -0.4188    1.6380 H   0  0  0  0  0  0  0  0  0  0  0  0
   -2.2608   -0.8269   -0.4008 C   0  0  2  0  0  0  0  0  0  0  0  0
   -2.2048   -0.3593   -1.3822 H   0  0  0  0  0  0  0  0  0  0  0  0
   -3.2961   -1.0956   -0.1899 H   0  0  0  0  0  0  0  0  0  0  0  0
   -1.3345   -2.4073   -0.5148 S   0  0  0  0  0  0  0  0  0  0  0  0
   -0.6889   -2.2884   -2.2078 C   0  0  2  0  0  0  0  0  0  0  0  0
   -0.1120   -3.1904   -2.3840 H   0  0  0  0  0  0  0  0  0  0  0  0
   -0.0506   -1.4154   -2.3035 H   0  0  0  0  0  0  0  0  0  0  0  0
   -1.5190   -2.2417   -2.9073 H   0  0  0  0  0  0  0  0  0  0  0  0
   -0.0420    1.7666    1.4552 C   0  0  0  0  0  0  0  0  0  0  0  0
   -0.3437    1.5922    2.6204 O   0  0  0  0  0  0  0  0  0  0  0  0
    0.6408    2.8576    1.0665 N   0  0  0  0  0  0  0  0  0  0  0  0
    0.8244    3.5140    1.8136 H   0  0  0  0  0  0  0  0  0  0  0  0
    1.6133   -0.3980   -0.5520 C   0  0  0  0  0  0  0  0  0  0  0  0
    1.6965    0.3724   -1.4930 O   0  0  0  0  0  0  0  0  0  0  0  0
    2.5474   -1.5654   -0.3368 C   0  0  2  0  0  0  0  0  0  0  0  0
    3.2374   -1.6358   -1.1726 H   0  0  0  0  0  0  0  0  0  0  0  0
    1.9757   -2.4873   -0.2552 H   0  0  0  0  0  0  0  0  0  0  0  0
    3.1113   -1.4215    0.5822 H   0  0  0  0  0  0  0  0  0  0  0  0
    1.0616    3.2511   -0.2594 C   0  0  1  0  0  0  0  0  0  0  0  0
    1.8852    3.9557   -0.1679 H   0  0  0  0  0  0  0  0  0  0  0  0
    1.4096    2.3920   -0.8332 H   0  0  0  0  0  0  0  0  0  0  0  0
    0.2471    3.7391   -0.8036 H   0  0  0  0  0  0  0  0  0  0  0  0
  1  2  1  0
  3  4  1  6
  3  1  1  0
  3  5  1  0
  3 16  1  0
  5  6  1  1
  5  7  1  0
  8 10  1  1
  8  5  1  0
  9  8  1  0
 11  8  1  0
 12 11  1  0
 12 13  1  6
 14 12  1  0
 15 12  1  0
 16 17  2  0
 18 16  1  0
 18 19  1  0
 20 22  1  0
 20  1  1  0
 21 20  2  0
 22 24  1  1
 22 25  1  0
 23 22  1  0
 26 27  1  1
 26 18  1  0
 28 26  1  0
 29 26  1  0
M  END
$$$$
