-46.27206455
     RDKit          3D

 29 29  0  0  1  0  0  0  0  0999 V2000
    1.3431   -0.5523    0.1672 N   0  0  0  0  0  0  0  0  0  0  0  0
    1.4550   -0.3437    1.1547 H   0  0  0  0  0  0  0  0  0  0  0  0
    0.9517    0.6004   -0.6088 C   0  0  1  0  0  0  0  0  0  0  0  0
    1.6682    0.7417   -1.4288 H   0  0  0  0  0  0  0  0  0  0  0  0
   -0.4694    0.4366   -1.2120 C   0  0  1  0  0  0  0  0  0  0  0  0
    1.0126    1.7887    0.3525 C   0  0  0  0  0  0  0  0  0  0  0  0
   -0.8439    1.4077   -1.5332 H   0  0  0  0  0  0  0  0  0  0  0  0
   -0.3872   -0.2193   -2.0805 H   0  0  0  0  0  0  0  0  0  0  0  0
   -1.4135   -0.1743   -0.2389 C   0  0  0  0  0  0  0  0  0  0  0  0
    1.1343    1.6156    1.5510 O   0  0  0  0  0  0  0  0  0  0  0  0
   -1.6682   -1.5210   -0.2321 N   0  0  0  0  0  0  0  0  0  0  0  0
   -2.1572    0.3368    0.7904 C   0  0  0  0  0  0  0  0  0  0  0  0
   -1.2462   -2.1880   -0.8602 H   0  0  0  0  0  0  0  0  0  0  0  0
   -2.5362   -1.7525    0.7792 C   0  0  0  0  0  0  0  0  0  0  0  0
   -2.8493   -0.6552    1.4087 N   0  0  0  0  0  0  0  0  0  0  0  0
   -2.2358    1.3524    1.1222 H   0  0  0  0  0  0  0  0  0  0  0  0
   -2.9161   -2.7256    1.0182 H   0  0  0  0  0  0  0  0  0  0  0  0
    1.3462   -1.8220   -0.2788 C   0  0  0  0  0  0  0  0  0  0  0  0
    1.7178   -2.8299    0.7874 C   0  0  2  0  0  0  0  0  0  0  0  0
    1.0735   -2.1275   -1.4255 O   0  0  0  0  0  0  0  0  0  0  0  0
    2.6814   -2.5775    1.2227 H   0  0  0  0  0  0  0  0  0  0  0  0
    1.7677   -3.8218    0.3475 H   0  0  0  0  0  0  0  0  0  0  0  0
    0.9679   -2.8216    1.5761 H   0  0  0  0  0  0  0  0  0  0  0  0
    0.9398    3.0289   -0.1616 N   0  0  0  0  0  0  0  0  0  0  0  0
    0.8486    3.4676   -1.5313 C   0  0  1  0  0  0  0  0  0  0  0  0
    0.9402    3.7596    0.5381 H   0  0  0  0  0  0  0  0  0  0  0  0
   -0.1758    3.7534   -1.7882 H   0  0  0  0  0  0  0  0  0  0  0  0
    1.4918    4.3370   -1.6723 H   0  0  0  0  0  0  0  0  0  0  0  0
    1.1749    2.6838   -2.2097 H   0  0  0  0  0  0  0  0  0  0  0  0
  1  2  1  0
  3  4  1  6
  3  1  1  0
  3  6  1  0
  5  3  1  0
  5  9  1  0
  6 10  2  0
  5  7  1  6
  8  5  1  0
  9 11  1  0
  9 12  2  0
 11 14  1  0
 12 16  1  0
 12 15  1  0
 13 11  1  0
 14 17  1  0
 14 15  2  0
 18  1  1  0
 18 19  1  0
 19 21  1  1
 19 23  1  0
 20 18  2  0
 22 19  1  0
 24  6  1  0
 24 26  1  0
 25 24  1  0
 25 27  1  6
 28 25  1  0
 29 25  1  0
M  END
$$$$
