-46.27542553
     RDKit          3D

 29 29  0  0  1  0  0  0  0  0999 V2000
    0.6828   -0.1501   -1.3718 N   0  0  0  0  0  0  0  0  0  0  0  0
    0.2983   -0.4559   -2.2541 H   0  0  0  0  0  0  0  0  0  0  0  0
    0.2600    1.1751   -0.9530 C   0  0  1  0  0  0  0  0  0  0  0  0
    0.5820    1.8969   -1.7157 H   0  0  0  0  0  0  0  0  0  0  0  0
   -1.2811    1.2282   -0.8293 C   0  0  1  0  0  0  0  0  0  0  0  0
    0.9297    1.5853    0.3714 C   0  0  0  0  0  0  0  0  0  0  0  0
   -1.5511    2.1324   -0.2810 H   0  0  0  0  0  0  0  0  0  0  0  0
   -1.7216    1.2717   -1.8272 H   0  0  0  0  0  0  0  0  0  0  0  0
   -1.7943    0.0227   -0.1233 C   0  0  0  0  0  0  0  0  0  0  0  0
    0.2794    1.8706    1.3597 O   0  0  0  0  0  0  0  0  0  0  0  0
   -1.6119   -0.1771    1.2156 N   0  0  0  0  0  0  0  0  0  0  0  0
   -2.4181   -1.1089   -0.5778 C   0  0  0  0  0  0  0  0  0  0  0  0
   -1.0919    0.4627    1.8031 H   0  0  0  0  0  0  0  0  0  0  0  0
   -2.1119   -1.3957    1.5028 C   0  0  0  0  0  0  0  0  0  0  0  0
   -2.6125   -1.9803    0.4471 N   0  0  0  0  0  0  0  0  0  0  0  0
   -2.7508   -1.3431   -1.5705 H   0  0  0  0  0  0  0  0  0  0  0  0
   -2.1000   -1.8224    2.4853 H   0  0  0  0  0  0  0  0  0  0  0  0
    0.9948   -1.1115   -0.4605 C   0  0  0  0  0  0  0  0  0  0  0  0
    0.9866   -2.5151   -1.0123 C   0  0  2  0  0  0  0  0  0  0  0  0
    1.2925   -0.8411    0.6836 O   0  0  0  0  0  0  0  0  0  0  0  0
   -0.0370   -2.8866   -0.9746 H   0  0  0  0  0  0  0  0  0  0  0  0
    1.6046   -3.1537   -0.3880 H   0  0  0  0  0  0  0  0  0  0  0  0
    1.3390   -2.5431   -2.0400 H   0  0  0  0  0  0  0  0  0  0  0  0
    2.2578    1.8137    0.3298 N   0  0  0  0  0  0  0  0  0  0  0  0
    3.2014    1.3763   -0.6671 C   0  0  1  0  0  0  0  0  0  0  0  0
    2.6498    2.0120    1.2410 H   0  0  0  0  0  0  0  0  0  0  0  0
    3.4688    0.3242   -0.5324 H   0  0  0  0  0  0  0  0  0  0  0  0
    2.7888    1.5057   -1.6657 H   0  0  0  0  0  0  0  0  0  0  0  0
    4.1025    1.9820   -0.5809 H   0  0  0  0  0  0  0  0  0  0  0  0
  1  3  1  0
  1 18  1  0
  2  1  1  0
  3  4  1  6
  3  5  1  0
  3  6  1  0
  5  7  1  1
  5  9  1  0
  6 10  2  0
  8  5  1  0
  9 11  1  0
 11 14  1  0
 11 13  1  0
 12  9  2  0
 12 15  1  0
 14 17  1  0
 15 14  2  0
 16 12  1  0
 18 20  2  0
 19 21  1  6
 19 18  1  0
 19 22  1  0
 23 19  1  0
 24  6  1  0
 24 26  1  0
 25 29  1  6
 25 27  1  0
 25 24  1  0
 28 25  1  0
M  END
$$$$
