 energy: -51.742653731777 gnorm: 0.000032492204 xtb: 6.5.1 (9af7eec)
     RDKit          3D

 35 34  0  0  0  0  0  0  0  0999 V2000
   -1.4172    0.2407    0.9357 N   0  0  0  0  0  0  0  0  0  0  0  0
   -1.8917    1.1219    0.8211 H   0  0  0  0  0  0  0  0  0  0  0  0
   -0.4779   -0.1513   -0.1004 C   0  0  1  0  0  0  0  0  0  0  0  0
   -0.4962   -1.2465   -0.1450 H   0  0  0  0  0  0  0  0  0  0  0  0
   -0.8382    0.4488   -1.4589 C   0  0  1  0  0  0  0  0  0  0  0  0
    0.9535    0.2600    0.3291 C   0  0  0  0  0  0  0  0  0  0  0  0
   -1.4495    1.3421   -1.3120 H   0  0  0  0  0  0  0  0  0  0  0  0
    0.0943    0.7765   -1.9249 H   0  0  0  0  0  0  0  0  0  0  0  0
   -1.5562   -0.5103   -2.4075 C   0  0  2  0  0  0  0  0  0  0  0  0
    1.6081    1.0957   -0.2593 O   0  0  0  0  0  0  0  0  0  0  0  0
   -0.9621   -1.4188   -2.5278 H   0  0  0  0  0  0  0  0  0  0  0  0
   -1.6302   -0.0322   -3.3861 H   0  0  0  0  0  0  0  0  0  0  0  0
   -2.9717   -0.8901   -1.9627 C   0  0  2  0  0  0  0  0  0  0  0  0
   -3.4983   -1.3579   -2.8085 H   0  0  0  0  0  0  0  0  0  0  0  0
   -3.5187    0.0163   -1.6912 H   0  0  0  0  0  0  0  0  0  0  0  0
   -2.9600   -1.7719   -0.8238 N   0  0  0  0  0  0  0  0  0  0  0  0
   -2.5021   -2.6590   -0.9665 H   0  0  0  0  0  0  0  0  0  0  0  0
   -3.8435   -1.7233    0.2287 C   0  0  0  0  0  0  0  0  0  0  0  0
   -4.7128   -0.8323    0.4910 N   0  0  0  0  0  0  0  0  0  0  0  0
   -3.7306   -2.8055    1.0809 N   0  0  0  0  0  0  0  0  0  0  0  0
   -4.8370   -0.1246   -0.2237 H   0  0  0  0  0  0  0  0  0  0  0  0
   -4.2834   -2.6802    1.9162 H   0  0  0  0  0  0  0  0  0  0  0  0
   -2.7857   -3.0994    1.2857 H   0  0  0  0  0  0  0  0  0  0  0  0
    1.3737   -0.4184    1.4067 N   0  0  0  0  0  0  0  0  0  0  0  0
    2.6558   -0.1843    2.0240 C   0  0  2  0  0  0  0  0  0  0  0  0
    0.7456   -1.0876    1.8396 H   0  0  0  0  0  0  0  0  0  0  0  0
    3.1801    0.5633    1.4308 H   0  0  0  0  0  0  0  0  0  0  0  0
    3.2401   -1.1055    2.0472 H   0  0  0  0  0  0  0  0  0  0  0  0
    2.5316    0.1835    3.0444 H   0  0  0  0  0  0  0  0  0  0  0  0
   -1.6914   -0.5221    2.0091 C   0  0  0  0  0  0  0  0  0  0  0  0
   -2.7478    0.0374    2.9241 C   0  0  1  0  0  0  0  0  0  0  0  0
   -1.1214   -1.5884    2.2034 O   0  0  0  0  0  0  0  0  0  0  0  0
   -2.5502    1.0829    3.1471 H   0  0  0  0  0  0  0  0  0  0  0  0
   -3.7161   -0.0432    2.4257 H   0  0  0  0  0  0  0  0  0  0  0  0
   -2.7710   -0.5352    3.8466 H   0  0  0  0  0  0  0  0  0  0  0  0
  1  3  1  0
  1 30  1  0
  1  2  1  0
  3  4  1  6
  3  6  1  0
  3  5  1  0
  5  9  1  0
  5  7  1  1
  5  8  1  0
  6 24  1  0
  6 10  1  0
  9 11  1  6
  9 12  1  0
  9 13  1  0
 13 15  1  1
 13 14  1  0
 13 16  1  0
 16 18  1  0
 16 17  1  0
 18 19  1  0
 18 20  1  0
 19 21  1  0
 20 22  1  0
 20 23  1  0
 24 26  1  0
 24 25  1  0
 25 27  1  6
 25 29  1  0
 25 28  1  0
 30 32  1  0
 30 31  1  0
 31 35  1  1
 31 34  1  0
 31 33  1  0
M  END
$$$$
