 energy: -51.740039790977 gnorm: 0.000025863858 xtb: 6.5.1 (9af7eec)
     RDKit          3D

 35 34  0  0  0  0  0  0  0  0999 V2000
   -1.3604   -0.2040    0.8959 N   0  0  0  0  0  0  0  0  0  0  0  0
   -0.3691   -0.2211    0.7161 H   0  0  0  0  0  0  0  0  0  0  0  0
   -2.2008    0.5011   -0.0579 C   0  0  1  0  0  0  0  0  0  0  0  0
   -3.1281    0.7340    0.4755 H   0  0  0  0  0  0  0  0  0  0  0  0
   -1.5243    1.7703   -0.5715 C   0  0  1  0  0  0  0  0  0  0  0  0
   -2.4970   -0.4710   -1.2203 C   0  0  1  0  0  0  0  0  0  0  0  0
   -0.7789    2.1031    0.1540 H   0  0  0  0  0  0  0  0  0  0  0  0
   -1.0011    1.5153   -1.4969 H   0  0  0  0  0  0  0  0  0  0  0  0
   -2.5020    2.9254   -0.8104 C   0  0  2  0  0  0  0  0  0  0  0  0
   -1.7771   -0.5319   -2.2035 O   0  0  0  0  0  0  0  0  0  0  0  0
   -1.9581    3.7376   -1.2982 H   0  0  0  0  0  0  0  0  0  0  0  0
   -2.8596    3.2981    0.1520 H   0  0  0  0  0  0  0  0  0  0  0  0
   -3.7320    2.5773   -1.6533 C   0  0  2  0  0  0  0  0  0  0  0  0
   -4.3109    3.5011   -1.8083 H   0  0  0  0  0  0  0  0  0  0  0  0
   -4.3740    1.8771   -1.1057 H   0  0  0  0  0  0  0  0  0  0  0  0
   -3.3940    1.9876   -2.9236 N   0  0  0  0  0  0  0  0  0  0  0  0
   -2.4494    2.1153   -3.2472 H   0  0  0  0  0  0  0  0  0  0  0  0
   -4.0916    0.9451   -3.4849 C   0  0  1  0  0  0  0  0  0  0  0  0
   -5.2826    0.5813   -3.2240 N   0  0  0  0  0  0  0  0  0  0  0  0
   -3.4006    0.3118   -4.5013 N   0  0  0  0  0  0  0  0  0  0  0  0
   -5.7686    1.1691   -2.5559 H   0  0  0  0  0  0  0  0  0  0  0  0
   -3.9226   -0.4740   -4.8617 H   0  0  0  0  0  0  0  0  0  0  0  0
   -2.4524    0.0613   -4.2512 H   0  0  0  0  0  0  0  0  0  0  0  0
   -3.5547   -1.2547   -1.0047 N   0  0  0  0  0  0  0  0  0  0  0  0
   -4.0342   -2.2147   -1.9715 C   0  0  2  0  0  0  0  0  0  0  0  0
   -4.0419   -1.1873   -0.1217 H   0  0  0  0  0  0  0  0  0  0  0  0
   -4.3349   -3.1306   -1.4661 H   0  0  0  0  0  0  0  0  0  0  0  0
   -3.2268   -2.4275   -2.6708 H   0  0  0  0  0  0  0  0  0  0  0  0
   -4.8814   -1.7932   -2.5199 H   0  0  0  0  0  0  0  0  0  0  0  0
   -1.9011   -1.0504    1.8025 C   0  0  0  0  0  0  0  0  0  0  0  0
   -0.8854   -1.7623    2.6651 C   0  0  1  0  0  0  0  0  0  0  0  0
   -3.1035   -1.1952    1.9122 O   0  0  0  0  0  0  0  0  0  0  0  0
   -0.3126   -2.4589    2.0558 H   0  0  0  0  0  0  0  0  0  0  0  0
   -0.2017   -1.0476    3.1165 H   0  0  0  0  0  0  0  0  0  0  0  0
   -1.4012   -2.3148    3.4447 H   0  0  0  0  0  0  0  0  0  0  0  0
  1  3  1  0
  1 30  1  0
  1  2  1  0
  3  4  1  1
  3  6  1  0
  3  5  1  0
  5  9  1  0
  5  7  1  1
  5  8  1  0
  6 24  1  0
  6 10  1  1
  9 11  1  6
  9 12  1  0
  9 13  1  0
 13 15  1  1
 13 14  1  0
 13 16  1  0
 16 18  1  0
 16 17  1  0
 18 19  1  6
 18 20  1  0
 19 21  1  0
 20 22  1  0
 20 23  1  0
 24 26  1  0
 24 25  1  0
 25 27  1  1
 25 29  1  0
 25 28  1  0
 30 32  1  0
 30 31  1  0
 31 35  1  1
 31 34  1  0
 31 33  1  0
M  END
$$$$
