 energy: -51.739395322937 gnorm: 0.000046974103 xtb: 6.5.1 (9af7eec)
     RDKit          3D

 35 34  0  0  0  0  0  0  0  0999 V2000
   -1.6074   -0.8052    2.2316 N   0  0  0  0  0  0  0  0  0  0  0  0
   -1.1546   -1.1869    3.0517 H   0  0  0  0  0  0  0  0  0  0  0  0
   -0.8706   -0.9893    0.9976 C   0  0  1  0  0  0  0  0  0  0  0  0
   -1.5882   -1.1081    0.1873 H   0  0  0  0  0  0  0  0  0  0  0  0
    0.0573    0.2230    0.7377 C   0  0  1  0  0  0  0  0  0  0  0  0
   -0.0291   -2.2476    1.2035 C   0  0  0  0  0  0  0  0  0  0  0  0
   -0.3650    1.0841    1.2615 H   0  0  0  0  0  0  0  0  0  0  0  0
    1.0290    0.0120    1.1904 H   0  0  0  0  0  0  0  0  0  0  0  0
    0.2400    0.5881   -0.7361 C   0  0  2  0  0  0  0  0  0  0  0  0
    0.4985   -2.4504    2.2855 O   0  0  0  0  0  0  0  0  0  0  0  0
    0.3385   -0.3135   -1.3404 H   0  0  0  0  0  0  0  0  0  0  0  0
    1.1607    1.1660   -0.8400 H   0  0  0  0  0  0  0  0  0  0  0  0
   -0.9100    1.4439   -1.2967 C   0  0  2  0  0  0  0  0  0  0  0  0
   -0.6378    1.7739   -2.3056 H   0  0  0  0  0  0  0  0  0  0  0  0
   -1.0343    2.3368   -0.6795 H   0  0  0  0  0  0  0  0  0  0  0  0
   -2.1876    0.7736   -1.3385 N   0  0  0  0  0  0  0  0  0  0  0  0
   -2.6979    0.7839   -0.4575 H   0  0  0  0  0  0  0  0  0  0  0  0
   -2.4055   -0.3655   -2.0728 C   0  0  0  0  0  0  0  0  0  0  0  0
   -3.2870   -1.2514   -1.8220 N   0  0  0  0  0  0  0  0  0  0  0  0
   -1.5611   -0.5825   -3.1540 N   0  0  0  0  0  0  0  0  0  0  0  0
   -3.8271   -1.0602   -0.9836 H   0  0  0  0  0  0  0  0  0  0  0  0
   -1.9302   -1.3041   -3.7565 H   0  0  0  0  0  0  0  0  0  0  0  0
   -1.2954    0.2503   -3.6574 H   0  0  0  0  0  0  0  0  0  0  0  0
    0.1246   -3.1145    0.1915 N   0  0  0  0  0  0  0  0  0  0  0  0
   -0.4413   -3.1279   -1.1373 C   0  0  2  0  0  0  0  0  0  0  0  0
    0.7414   -3.8845    0.4168 H   0  0  0  0  0  0  0  0  0  0  0  0
   -0.5440   -4.1624   -1.4597 H   0  0  0  0  0  0  0  0  0  0  0  0
    0.2034   -2.6071   -1.8498 H   0  0  0  0  0  0  0  0  0  0  0  0
   -1.4274   -2.6668   -1.1641 H   0  0  0  0  0  0  0  0  0  0  0  0
   -2.7729   -0.1418    2.3127 C   0  0  0  0  0  0  0  0  0  0  0  0
   -3.3563   -0.0914    3.7065 C   0  0  1  0  0  0  0  0  0  0  0  0
   -3.3100    0.3687    1.3448 O   0  0  0  0  0  0  0  0  0  0  0  0
   -2.6641    0.4048    4.3829 H   0  0  0  0  0  0  0  0  0  0  0  0
   -4.2943    0.4556    3.6849 H   0  0  0  0  0  0  0  0  0  0  0  0
   -3.5352   -1.1007    4.0700 H   0  0  0  0  0  0  0  0  0  0  0  0
  1  3  1  0
  1 30  1  0
  1  2  1  0
  3  4  1  6
  3  6  1  0
  3  5  1  0
  5  9  1  0
  5  7  1  1
  5  8  1  0
  6 24  1  0
  6 10  1  0
  9 11  1  6
  9 12  1  0
  9 13  1  0
 13 15  1  1
 13 14  1  0
 13 16  1  0
 16 18  1  0
 16 17  1  0
 18 19  1  0
 18 20  1  0
 19 21  1  0
 20 22  1  0
 20 23  1  0
 24 26  1  0
 24 25  1  0
 25 27  1  6
 25 29  1  0
 25 28  1  0
 30 32  1  0
 30 31  1  0
 31 35  1  1
 31 34  1  0
 31 33  1  0
M  END
$$$$
