 energy: -51.738080426801 gnorm: 0.000025164505 xtb: 6.5.1 (9af7eec)
     RDKit          3D

 35 34  0  0  0  0  0  0  0  0999 V2000
   -0.9138   -0.5834    2.1946 N   0  0  0  0  0  0  0  0  0  0  0  0
   -1.2727   -1.0230    3.0350 H   0  0  0  0  0  0  0  0  0  0  0  0
   -1.9348   -0.2331    1.2400 C   0  0  1  0  0  0  0  0  0  0  0  0
   -1.5096    0.4599    0.5041 H   0  0  0  0  0  0  0  0  0  0  0  0
   -2.4984   -1.4478    0.4766 C   0  0  1  0  0  0  0  0  0  0  0  0
   -3.0588    0.5563    1.9361 C   0  0  2  0  0  0  0  0  0  0  0  0
   -3.4590   -1.1446    0.0570 H   0  0  0  0  0  0  0  0  0  0  0  0
   -1.8254   -1.6852   -0.3497 H   0  0  0  0  0  0  0  0  0  0  0  0
   -2.6839   -2.7176    1.3107 C   0  0  2  0  0  0  0  0  0  0  0  0
   -4.2111    0.5252    1.5433 O   0  0  0  0  0  0  0  0  0  0  0  0
   -1.7309   -3.0131    1.7567 H   0  0  0  0  0  0  0  0  0  0  0  0
   -2.9839   -3.5146    0.6277 H   0  0  0  0  0  0  0  0  0  0  0  0
   -3.7528   -2.6108    2.4022 C   0  0  2  0  0  0  0  0  0  0  0  0
   -4.0756   -3.6226    2.6859 H   0  0  0  0  0  0  0  0  0  0  0  0
   -4.6197   -2.0830    2.0075 H   0  0  0  0  0  0  0  0  0  0  0  0
   -3.2582   -1.8987    3.5652 N   0  0  0  0  0  0  0  0  0  0  0  0
   -2.5467   -2.4175    4.0677 H   0  0  0  0  0  0  0  0  0  0  0  0
   -4.0542   -1.1390    4.4132 C   0  0  0  0  0  0  0  0  0  0  0  0
   -3.7059   -0.7778    5.5832 N   0  0  0  0  0  0  0  0  0  0  0  0
   -5.2818   -0.7486    3.9362 N   0  0  0  0  0  0  0  0  0  0  0  0
   -2.8345   -1.1820    5.9120 H   0  0  0  0  0  0  0  0  0  0  0  0
   -5.7301   -0.1109    4.5779 H   0  0  0  0  0  0  0  0  0  0  0  0
   -5.2969   -0.4180    2.9788 H   0  0  0  0  0  0  0  0  0  0  0  0
   -2.6371    1.3243    2.9499 N   0  0  0  0  0  0  0  0  0  0  0  0
   -3.5177    2.1308    3.7624 C   0  0  2  0  0  0  0  0  0  0  0  0
   -1.6779    1.2409    3.2515 H   0  0  0  0  0  0  0  0  0  0  0  0
   -3.6752    1.6616    4.7369 H   0  0  0  0  0  0  0  0  0  0  0  0
   -4.4696    2.2179    3.2416 H   0  0  0  0  0  0  0  0  0  0  0  0
   -3.0869    3.1222    3.9001 H   0  0  0  0  0  0  0  0  0  0  0  0
    0.4273   -0.6937    2.0167 C   0  0  0  0  0  0  0  0  0  0  0  0
    0.9832   -0.1648    0.7149 C   0  0  1  0  0  0  0  0  0  0  0  0
    1.1205   -1.1639    2.8944 O   0  0  0  0  0  0  0  0  0  0  0  0
    0.5656   -0.7114   -0.1272 H   0  0  0  0  0  0  0  0  0  0  0  0
    0.7504    0.8920    0.6025 H   0  0  0  0  0  0  0  0  0  0  0  0
    2.0617   -0.2921    0.7237 H   0  0  0  0  0  0  0  0  0  0  0  0
  1  3  1  0
  1 30  1  0
  1  2  1  0
  3  4  1  6
  3  6  1  0
  3  5  1  0
  5  9  1  0
  5  7  1  6
  5  8  1  0
  6 24  1  0
  6 10  1  6
  9 11  1  1
  9 12  1  0
  9 13  1  0
 13 15  1  6
 13 14  1  0
 13 16  1  0
 16 18  1  0
 16 17  1  0
 18 19  1  0
 18 20  1  0
 19 21  1  0
 20 22  1  0
 20 23  1  0
 24 26  1  0
 24 25  1  0
 25 27  1  1
 25 29  1  0
 25 28  1  0
 30 32  1  0
 30 31  1  0
 31 35  1  1
 31 34  1  0
 31 33  1  0
M  END
$$$$
