 energy: -51.739674366783 gnorm: 0.000047343551 xtb: 6.5.1 (9af7eec)
     RDKit          3D

 35 34  0  0  0  0  0  0  0  0999 V2000
   -2.0597   -1.2882   -0.9793 N   0  0  0  0  0  0  0  0  0  0  0  0
   -2.2191   -1.6323   -0.0388 H   0  0  0  0  0  0  0  0  0  0  0  0
   -0.7564   -0.6946   -1.1612 C   0  0  1  0  0  0  0  0  0  0  0  0
   -0.2522   -1.1729   -2.0128 H   0  0  0  0  0  0  0  0  0  0  0  0
   -0.8685    0.8171   -1.4404 C   0  0  1  0  0  0  0  0  0  0  0  0
    0.0325   -0.9640    0.1228 C   0  0  0  0  0  0  0  0  0  0  0  0
    0.1234    1.2444   -1.5980 H   0  0  0  0  0  0  0  0  0  0  0  0
   -1.4290    0.9101   -2.3717 H   0  0  0  0  0  0  0  0  0  0  0  0
   -1.6044    1.5551   -0.3213 C   0  0  2  0  0  0  0  0  0  0  0  0
   -0.4993   -1.4132    1.1181 O   0  0  0  0  0  0  0  0  0  0  0  0
   -0.9094    1.8478    0.4677 H   0  0  0  0  0  0  0  0  0  0  0  0
   -2.3472    0.8882    0.1195 H   0  0  0  0  0  0  0  0  0  0  0  0
   -2.3434    2.8004   -0.8393 C   0  0  2  0  0  0  0  0  0  0  0  0
   -1.6353    3.5021   -1.2868 H   0  0  0  0  0  0  0  0  0  0  0  0
   -2.8267    3.3037    0.0047 H   0  0  0  0  0  0  0  0  0  0  0  0
   -3.3468    2.4985   -1.8314 N   0  0  0  0  0  0  0  0  0  0  0  0
   -3.0223    2.4309   -2.7833 H   0  0  0  0  0  0  0  0  0  0  0  0
   -4.4658    1.7368   -1.5601 C   0  0  1  0  0  0  0  0  0  0  0  0
   -4.9980    1.5049   -0.4287 N   0  0  0  0  0  0  0  0  0  0  0  0
   -5.0959    1.2792   -2.7016 N   0  0  0  0  0  0  0  0  0  0  0  0
   -4.5526    1.9681    0.3551 H   0  0  0  0  0  0  0  0  0  0  0  0
   -5.9044    0.7180   -2.4764 H   0  0  0  0  0  0  0  0  0  0  0  0
   -4.4871    0.8232   -3.3692 H   0  0  0  0  0  0  0  0  0  0  0  0
    1.3385   -0.6540    0.0476 N   0  0  0  0  0  0  0  0  0  0  0  0
    2.2428   -0.8096    1.1616 C   0  0  2  0  0  0  0  0  0  0  0  0
    1.7178   -0.3061   -0.8183 H   0  0  0  0  0  0  0  0  0  0  0  0
    1.6654   -1.1973    1.9988 H   0  0  0  0  0  0  0  0  0  0  0  0
    2.6825    0.1503    1.4377 H   0  0  0  0  0  0  0  0  0  0  0  0
    3.0406   -1.5124    0.9156 H   0  0  0  0  0  0  0  0  0  0  0  0
   -3.0609   -1.2391   -1.8789 C   0  0  0  0  0  0  0  0  0  0  0  0
   -4.3687   -1.7909   -1.3654 C   0  0  1  0  0  0  0  0  0  0  0  0
   -2.9214   -0.7711   -2.9963 O   0  0  0  0  0  0  0  0  0  0  0  0
   -4.8719   -0.9998   -0.8067 H   0  0  0  0  0  0  0  0  0  0  0  0
   -4.9976   -2.0823   -2.2021 H   0  0  0  0  0  0  0  0  0  0  0  0
   -4.2084   -2.6413   -0.7091 H   0  0  0  0  0  0  0  0  0  0  0  0
  1  3  1  0
  1 30  1  0
  1  2  1  0
  3  4  1  6
  3  6  1  0
  3  5  1  0
  5  9  1  0
  5  7  1  6
  5  8  1  0
  6 24  1  0
  6 10  1  0
  9 11  1  1
  9 12  1  0
  9 13  1  0
 13 15  1  1
 13 14  1  0
 13 16  1  0
 16 18  1  0
 16 17  1  0
 18 19  1  6
 18 20  1  0
 19 21  1  0
 20 22  1  0
 20 23  1  0
 24 26  1  0
 24 25  1  0
 25 27  1  1
 25 29  1  0
 25 28  1  0
 30 32  1  0
 30 31  1  0
 31 35  1  1
 31 34  1  0
 31 33  1  0
M  END
$$$$
