 energy: -51.741108955972 gnorm: 0.000039908656 xtb: 6.5.1 (9af7eec)
     RDKit          3D

 35 34  0  0  0  0  0  0  0  0999 V2000
    0.0623   -0.7912   -2.1531 N   0  0  0  0  0  0  0  0  0  0  0  0
    0.1942   -0.0658   -2.8443 H   0  0  0  0  0  0  0  0  0  0  0  0
    0.7605   -2.0511   -2.3464 C   0  0  1  0  0  0  0  0  0  0  0  0
    0.1139   -2.8465   -1.9543 H   0  0  0  0  0  0  0  0  0  0  0  0
    1.0539   -2.2707   -3.8274 C   0  0  1  0  0  0  0  0  0  0  0  0
    2.0715   -2.0515   -1.5286 C   0  0  0  0  0  0  0  0  0  0  0  0
    1.6704   -1.4343   -4.1623 H   0  0  0  0  0  0  0  0  0  0  0  0
    1.6655   -3.1673   -3.9264 H   0  0  0  0  0  0  0  0  0  0  0  0
   -0.2236   -2.3819   -4.6686 C   0  0  2  0  0  0  0  0  0  0  0  0
    3.1698   -2.0029   -2.0459 O   0  0  0  0  0  0  0  0  0  0  0  0
   -1.0581   -1.9430   -4.1185 H   0  0  0  0  0  0  0  0  0  0  0  0
   -0.4624   -3.4288   -4.8572 H   0  0  0  0  0  0  0  0  0  0  0  0
   -0.1095   -1.6525   -6.0152 C   0  0  2  0  0  0  0  0  0  0  0  0
   -1.0390   -1.7861   -6.5783 H   0  0  0  0  0  0  0  0  0  0  0  0
    0.7029   -2.0757   -6.6087 H   0  0  0  0  0  0  0  0  0  0  0  0
    0.1583   -0.2333   -5.8662 N   0  0  0  0  0  0  0  0  0  0  0  0
    1.1417   -0.0033   -5.8235 H   0  0  0  0  0  0  0  0  0  0  0  0
   -0.6133    0.5715   -5.0513 C   0  0  0  0  0  0  0  0  0  0  0  0
   -0.1934    1.5744   -4.3842 N   0  0  0  0  0  0  0  0  0  0  0  0
   -1.9381    0.2218   -4.9325 N   0  0  0  0  0  0  0  0  0  0  0  0
    0.8025    1.7519   -4.4685 H   0  0  0  0  0  0  0  0  0  0  0  0
   -2.4974    0.9518   -4.5198 H   0  0  0  0  0  0  0  0  0  0  0  0
   -2.3558   -0.2239   -5.7327 H   0  0  0  0  0  0  0  0  0  0  0  0
    1.8472   -2.1107   -0.2084 N   0  0  0  0  0  0  0  0  0  0  0  0
    2.9102   -2.0671    0.7646 C   0  0  2  0  0  0  0  0  0  0  0  0
    0.8860   -2.0697    0.1204 H   0  0  0  0  0  0  0  0  0  0  0  0
    2.8493   -1.1572    1.3653 H   0  0  0  0  0  0  0  0  0  0  0  0
    3.8568   -2.0821    0.2265 H   0  0  0  0  0  0  0  0  0  0  0  0
    2.8528   -2.9332    1.4256 H   0  0  0  0  0  0  0  0  0  0  0  0
   -0.7395   -0.5452   -1.1018 C   0  0  0  0  0  0  0  0  0  0  0  0
   -1.4285    0.7964   -1.1383 C   0  0  1  0  0  0  0  0  0  0  0  0
   -0.8866   -1.3495   -0.1926 O   0  0  0  0  0  0  0  0  0  0  0  0
   -1.2303    1.3254   -2.0666 H   0  0  0  0  0  0  0  0  0  0  0  0
   -2.4985    0.6463   -1.0143 H   0  0  0  0  0  0  0  0  0  0  0  0
   -1.0812    1.3922   -0.2965 H   0  0  0  0  0  0  0  0  0  0  0  0
  1  3  1  0
  1 30  1  0
  1  2  1  0
  3  4  1  1
  3  6  1  0
  3  5  1  0
  5  9  1  0
  5  7  1  6
  5  8  1  0
  6 24  1  0
  6 10  1  0
  9 11  1  1
  9 12  1  0
  9 13  1  0
 13 15  1  6
 13 14  1  0
 13 16  1  0
 16 18  1  0
 16 17  1  0
 18 19  1  0
 18 20  1  0
 19 21  1  0
 20 22  1  0
 20 23  1  0
 24 26  1  0
 24 25  1  0
 25 27  1  1
 25 29  1  0
 25 28  1  0
 30 32  1  0
 30 31  1  0
 31 35  1  1
 31 34  1  0
 31 33  1  0
M  END
$$$$
