 energy: -51.741133452515 gnorm: 0.000029280841 xtb: 6.5.1 (9af7eec)
     RDKit          3D

 35 34  0  0  0  0  0  0  0  0999 V2000
   -1.5516    0.2811    2.4960 N   0  0  0  0  0  0  0  0  0  0  0  0
   -1.5243    1.1451    3.0191 H   0  0  0  0  0  0  0  0  0  0  0  0
   -1.8579    0.4227    1.0855 C   0  0  1  0  0  0  0  0  0  0  0  0
   -1.3924   -0.4095    0.5592 H   0  0  0  0  0  0  0  0  0  0  0  0
   -3.3884    0.4386    0.8689 C   0  0  1  0  0  0  0  0  0  0  0  0
   -1.2736    1.7668    0.6520 C   0  0  0  0  0  0  0  0  0  0  0  0
   -3.8488   -0.1887    1.6365 H   0  0  0  0  0  0  0  0  0  0  0  0
   -3.7387    1.4614    1.0264 H   0  0  0  0  0  0  0  0  0  0  0  0
   -3.8250   -0.0622   -0.5086 C   0  0  2  0  0  0  0  0  0  0  0  0
   -1.4966    2.7699    1.3084 O   0  0  0  0  0  0  0  0  0  0  0  0
   -3.1072    0.2583   -1.2654 H   0  0  0  0  0  0  0  0  0  0  0  0
   -4.7917    0.3771   -0.7619 H   0  0  0  0  0  0  0  0  0  0  0  0
   -3.9809   -1.5931   -0.5569 C   0  0  2  0  0  0  0  0  0  0  0  0
   -4.2981   -1.8879   -1.5629 H   0  0  0  0  0  0  0  0  0  0  0  0
   -4.7649   -1.8993    0.1409 H   0  0  0  0  0  0  0  0  0  0  0  0
   -2.7879   -2.3257   -0.2125 N   0  0  0  0  0  0  0  0  0  0  0  0
   -2.5628   -2.3317    0.7769 H   0  0  0  0  0  0  0  0  0  0  0  0
   -1.6851   -2.3477   -1.0401 C   0  0  0  0  0  0  0  0  0  0  0  0
   -1.6400   -2.1588   -2.2987 N   0  0  0  0  0  0  0  0  0  0  0  0
   -0.4968   -2.5656   -0.3725 N   0  0  0  0  0  0  0  0  0  0  0  0
   -2.5384   -1.9653   -2.7257 H   0  0  0  0  0  0  0  0  0  0  0  0
    0.2356   -2.9403   -0.9531 H   0  0  0  0  0  0  0  0  0  0  0  0
   -0.5746   -2.9722    0.5475 H   0  0  0  0  0  0  0  0  0  0  0  0
   -0.5294    1.8109   -0.4641 N   0  0  0  0  0  0  0  0  0  0  0  0
   -0.0065    0.7131   -1.2497 C   0  0  2  0  0  0  0  0  0  0  0  0
   -0.1794    2.7336   -0.6828 H   0  0  0  0  0  0  0  0  0  0  0  0
    0.6016    1.1235   -2.0512 H   0  0  0  0  0  0  0  0  0  0  0  0
   -0.7961    0.1096   -1.6989 H   0  0  0  0  0  0  0  0  0  0  0  0
    0.6168    0.0533   -0.6429 H   0  0  0  0  0  0  0  0  0  0  0  0
   -1.4389   -0.9105    3.1071 C   0  0  0  0  0  0  0  0  0  0  0  0
   -1.1476   -0.8204    4.5875 C   0  0  1  0  0  0  0  0  0  0  0  0
   -1.5537   -1.9692    2.5117 O   0  0  0  0  0  0  0  0  0  0  0  0
   -0.2485   -0.2328    4.7574 H   0  0  0  0  0  0  0  0  0  0  0  0
   -1.9788   -0.3404    5.0996 H   0  0  0  0  0  0  0  0  0  0  0  0
   -1.0091   -1.8196    4.9900 H   0  0  0  0  0  0  0  0  0  0  0  0
  1  3  1  0
  1 30  1  0
  1  2  1  0
  3  4  1  6
  3  6  1  0
  3  5  1  0
  5  9  1  0
  5  7  1  1
  5  8  1  0
  6 24  1  0
  6 10  1  0
  9 11  1  6
  9 12  1  0
  9 13  1  0
 13 15  1  1
 13 14  1  0
 13 16  1  0
 16 18  1  0
 16 17  1  0
 18 19  1  0
 18 20  1  0
 19 21  1  0
 20 22  1  0
 20 23  1  0
 24 26  1  0
 24 25  1  0
 25 27  1  6
 25 29  1  0
 25 28  1  0
 30 32  1  0
 30 31  1  0
 31 35  1  1
 31 34  1  0
 31 33  1  0
M  END
$$$$
