ACONF/B_T/struc.xyz
     RDKit          3D

 14 13  0  0  0  0  0  0  0  0999 V2000
    0.7030    1.8160    0.0000 C   0  0  2  0  0  0  0  0  0  0  0  0
    0.1890    2.2020    0.8800 H   0  0  0  0  0  0  0  0  0  0  0  0
    0.1890    2.2020   -0.8800 H   0  0  0  0  0  0  0  0  0  0  0  0
    1.7140    2.2190    0.0000 H   0  0  0  0  0  0  0  0  0  0  0  0
    0.7030    0.2930    0.0000 C   0  0  1  0  0  0  0  0  0  0  0  0
    1.2430   -0.0770   -0.8740 H   0  0  0  0  0  0  0  0  0  0  0  0
    1.2430   -0.0770    0.8740 H   0  0  0  0  0  0  0  0  0  0  0  0
   -0.7030   -0.2930    0.0000 C   0  0  2  0  0  0  0  0  0  0  0  0
   -1.2430    0.0770   -0.8740 H   0  0  0  0  0  0  0  0  0  0  0  0
   -1.2430    0.0770    0.8740 H   0  0  0  0  0  0  0  0  0  0  0  0
   -0.7030   -1.8160    0.0000 C   0  0  1  0  0  0  0  0  0  0  0  0
   -0.1890   -2.2020    0.8800 H   0  0  0  0  0  0  0  0  0  0  0  0
   -1.7140   -2.2190    0.0000 H   0  0  0  0  0  0  0  0  0  0  0  0
   -0.1890   -2.2020   -0.8800 H   0  0  0  0  0  0  0  0  0  0  0  0
  1  3  1  1
  1  4  1  0
  1  5  1  0
  1  2  1  0
  5  6  1  1
  5  8  1  0
  5  7  1  0
  8  9  1  1
  8 11  1  0
  8 10  1  0
 11 14  1  1
 11 13  1  0
 11 12  1  0
M  END
$$$$
