 energy: -74.397230179007 gnorm: 0.000029064669 xtb: 6.5.1 (9af7eec)
     RDKit          3D

 37 39  0  0  0  0  0  0  0  0999 V2000
   -0.3553   -1.5004   -2.3607 C   0  0  0  0  0  0  0  0  0  0  0  0
   -1.3576   -1.2094   -3.1221 N   0  0  0  0  0  0  0  0  0  0  0  0
   -2.2166   -0.4890   -2.3361 C   0  0  0  0  0  0  0  0  0  0  0  0
   -1.6792   -0.3646   -1.0540 C   0  0  0  0  0  0  0  0  0  0  0  0
   -0.4860   -1.0273   -1.0754 N   0  0  0  0  0  0  0  0  0  0  0  0
    0.4950   -1.0997   -0.0258 C   0  0  2  0  0  0  0  0  0  0  0  0
   -0.0985   -1.5348    1.3173 C   0  0  2  0  0  0  0  0  0  0  0  0
    0.6011   -0.6260    2.3402 C   0  0  2  0  0  0  0  0  0  0  0  0
    0.8755    0.6442    1.4900 C   0  0  2  0  0  0  0  0  0  0  0  0
    1.0633    0.1882    0.1607 O   0  0  0  0  0  0  0  0  0  0  0  0
    2.1356    1.4142    1.9399 C   0  0  2  0  0  0  0  0  0  0  0  0
    3.0850    1.5610    0.9119 O   0  0  0  0  0  0  0  0  0  0  0  0
    3.6784    0.2750    0.1372 P   0  0  1  0  0  5  0  0  0  0  0  0
    3.4460   -1.0370    0.7451 O   0  0  0  0  0  0  0  0  0  0  0  0
    3.2789    0.4895   -1.3906 O   0  0  0  0  0  0  0  0  0  0  0  0
    5.2169    0.6210    0.0641 O   0  0  0  0  0  0  0  0  0  0  0  0
    1.7389   -1.1927    2.8976 O   0  0  0  0  0  0  0  0  0  0  0  0
   -2.2357    0.2737    0.0015 N   0  0  0  0  0  0  0  0  0  0  0  0
   -3.3852    0.8281   -0.2654 C   0  0  0  0  0  0  0  0  0  0  0  0
   -3.9881    0.7640   -1.4835 N   0  0  0  0  0  0  0  0  0  0  0  0
   -3.4835    0.1109   -2.6400 C   0  0  0  0  0  0  0  0  0  0  0  0
   -4.1337    0.1390   -3.6557 O   0  0  0  0  0  0  0  0  0  0  0  0
   -4.0014    1.5506    0.7044 N   0  0  0  0  0  0  0  0  0  0  0  0
    0.5020   -2.0647   -2.6696 H   0  0  0  0  0  0  0  0  0  0  0  0
    1.2915   -1.7742   -0.3685 H   0  0  0  0  0  0  0  0  0  0  0  0
    0.0943   -2.5835    1.5286 H   0  0  0  0  0  0  0  0  0  0  0  0
   -1.1698   -1.3416    1.3175 H   0  0  0  0  0  0  0  0  0  0  0  0
   -0.0553   -0.3885    3.1821 H   0  0  0  0  0  0  0  0  0  0  0  0
   -0.0078    1.2963    1.5092 H   0  0  0  0  0  0  0  0  0  0  0  0
    2.5854    0.8851    2.7876 H   0  0  0  0  0  0  0  0  0  0  0  0
    1.8765    2.4312    2.2417 H   0  0  0  0  0  0  0  0  0  0  0  0
    2.3335    0.4364   -1.5269 H   0  0  0  0  0  0  0  0  0  0  0  0
    5.3919    1.4348   -0.4074 H   0  0  0  0  0  0  0  0  0  0  0  0
    2.4062   -1.3302    2.1931 H   0  0  0  0  0  0  0  0  0  0  0  0
   -4.8751    1.2332   -1.6240 H   0  0  0  0  0  0  0  0  0  0  0  0
   -4.9814    1.7576    0.6218 H   0  0  0  0  0  0  0  0  0  0  0  0
   -3.6222    1.4624    1.6312 H   0  0  0  0  0  0  0  0  0  0  0  0
  1  2  2  0
  2  3  1  0
  3  4  2  0
  4  5  1  0
  5  6  1  0
  6  7  1  0
  7  8  1  0
  8  9  1  0
  9 10  1  0
  9 11  1  0
 11 12  1  0
 13 12  1  1
 13 14  2  0
 13 15  1  0
 13 16  1  0
  8 17  1  0
  4 18  1  0
 18 19  2  0
 19 20  1  0
 20 21  1  0
 21 22  2  0
 19 23  1  0
  5  1  1  0
 21  3  1  0
 10  6  1  0
  1 24  1  0
  6 25  1  6
  7 26  1  1
  7 27  1  0
  8 28  1  1
  9 29  1  6
 11 30  1  1
 11 31  1  0
 15 32  1  0
 16 33  1  0
 17 34  1  0
 20 35  1  0
 23 36  1  0
 23 37  1  0
M  END
$$$$
