 energy: -74.394241904296 gnorm: 0.000043318157 xtb: 6.5.1 (9af7eec)
     RDKit          3D

 37 39  0  0  0  0  0  0  0  0999 V2000
    2.2387   -2.6642   -5.1804 C   0  0  0  0  0  0  0  0  0  0  0  0
    1.2710   -3.5203   -5.2328 N   0  0  0  0  0  0  0  0  0  0  0  0
    0.1557   -2.8455   -4.8098 C   0  0  0  0  0  0  0  0  0  0  0  0
    0.5029   -1.5280   -4.5201 C   0  0  0  0  0  0  0  0  0  0  0  0
    1.8404   -1.4166   -4.7582 N   0  0  0  0  0  0  0  0  0  0  0  0
    2.5916   -0.2357   -4.4435 C   0  0  2  0  0  0  0  0  0  0  0  0
    4.1096   -0.4021   -4.3715 C   0  0  2  0  0  0  0  0  0  0  0  0
    4.5051    0.7644   -3.4551 C   0  0  2  0  0  0  0  0  0  0  0  0
    3.2164    0.9992   -2.6056 C   0  0  2  0  0  0  0  0  0  0  0  0
    2.2253    0.1436   -3.1302 O   0  0  0  0  0  0  0  0  0  0  0  0
    2.7086    2.4521   -2.6375 C   0  0  2  0  0  0  0  0  0  0  0  0
    1.4475    2.4977   -2.0023 O   0  0  0  0  0  0  0  0  0  0  0  0
    0.1310    2.6633   -2.8846 P   0  0  1  0  0  5  0  0  0  0  0  0
   -1.0909    2.2274   -2.1941 O   0  0  0  0  0  0  0  0  0  0  0  0
    0.1748    4.2270   -3.2193 O   0  0  0  0  0  0  0  0  0  0  0  0
    0.3711    2.0060   -4.2920 O   0  0  0  0  0  0  0  0  0  0  0  0
    4.8571    1.8555   -4.2673 O   0  0  0  0  0  0  0  0  0  0  0  0
   -0.3097   -0.5492   -4.0722 N   0  0  0  0  0  0  0  0  0  0  0  0
   -1.5356   -0.9347   -3.8051 C   0  0  0  0  0  0  0  0  0  0  0  0
   -1.9609   -2.2063   -4.0519 N   0  0  0  0  0  0  0  0  0  0  0  0
   -1.1981   -3.2745   -4.6000 C   0  0  0  0  0  0  0  0  0  0  0  0
   -1.7392   -4.3354   -4.7932 O   0  0  0  0  0  0  0  0  0  0  0  0
   -2.4019   -0.0350   -3.3156 N   0  0  0  0  0  0  0  0  0  0  0  0
    3.2494   -2.8811   -5.4604 H   0  0  0  0  0  0  0  0  0  0  0  0
    2.3276    0.5624   -5.1592 H   0  0  0  0  0  0  0  0  0  0  0  0
    4.5963   -0.3121   -5.3386 H   0  0  0  0  0  0  0  0  0  0  0  0
    4.3583   -1.3534   -3.9034 H   0  0  0  0  0  0  0  0  0  0  0  0
    5.3462    0.4930   -2.8048 H   0  0  0  0  0  0  0  0  0  0  0  0
    3.3582    0.7049   -1.5600 H   0  0  0  0  0  0  0  0  0  0  0  0
    2.6281    2.7973   -3.6707 H   0  0  0  0  0  0  0  0  0  0  0  0
    3.3810    3.1070   -2.0754 H   0  0  0  0  0  0  0  0  0  0  0  0
   -0.6968    4.5412   -3.4512 H   0  0  0  0  0  0  0  0  0  0  0  0
    0.1216    1.0293   -4.2377 H   0  0  0  0  0  0  0  0  0  0  0  0
    5.2161    2.5684   -3.7298 H   0  0  0  0  0  0  0  0  0  0  0  0
   -2.9233   -2.4498   -3.8485 H   0  0  0  0  0  0  0  0  0  0  0  0
   -3.2803   -0.3522   -2.9436 H   0  0  0  0  0  0  0  0  0  0  0  0
   -2.0011    0.8184   -2.9168 H   0  0  0  0  0  0  0  0  0  0  0  0
  1  2  2  0
  2  3  1  0
  3  4  2  0
  4  5  1  0
  5  6  1  0
  6  7  1  0
  7  8  1  0
  8  9  1  0
  9 10  1  0
  9 11  1  0
 11 12  1  0
 13 12  1  1
 13 14  2  0
 13 15  1  0
 13 16  1  0
  8 17  1  0
  4 18  1  0
 18 19  2  0
 19 20  1  0
 20 21  1  0
 21 22  2  0
 19 23  1  0
  5  1  1  0
 21  3  1  0
 10  6  1  0
  1 24  1  0
  6 25  1  6
  7 26  1  6
  7 27  1  0
  8 28  1  1
  9 29  1  1
 11 30  1  6
 11 31  1  0
 15 32  1  0
 16 33  1  0
 17 34  1  0
 20 35  1  0
 23 36  1  0
 23 37  1  0
M  END
$$$$
