 energy: -74.395007128397 gnorm: 0.000036734545 xtb: 6.5.1 (9af7eec)
     RDKit          3D

 37 39  0  0  0  0  0  0  0  0999 V2000
    3.8333    3.7705   -1.1196 C   0  0  0  0  0  0  0  0  0  0  0  0
    3.4611    3.3555    0.0452 N   0  0  0  0  0  0  0  0  0  0  0  0
    2.0902    3.3669    0.0179 C   0  0  0  0  0  0  0  0  0  0  0  0
    1.6586    3.8178   -1.2288 C   0  0  0  0  0  0  0  0  0  0  0  0
    2.7847    4.0837   -1.9565 N   0  0  0  0  0  0  0  0  0  0  0  0
    2.8689    4.5640   -3.3161 C   0  0  2  0  0  0  0  0  0  0  0  0
    1.8682    5.7073   -3.5671 C   0  0  2  0  0  0  0  0  0  0  0  0
    0.7333    5.0572   -4.3747 C   0  0  2  0  0  0  0  0  0  0  0  0
    1.1549    3.5661   -4.4465 C   0  0  2  0  0  0  0  0  0  0  0  0
    2.5656    3.5671   -4.2574 O   0  0  0  0  0  0  0  0  0  0  0  0
    0.8109    2.8223   -5.7335 C   0  0  2  0  0  0  0  0  0  0  0  0
   -0.4905    2.2820   -5.7034 O   0  0  0  0  0  0  0  0  0  0  0  0
   -1.7843    3.1965   -5.4528 P   0  0  1  0  0  5  0  0  0  0  0  0
   -2.0515    3.5726   -4.0539 O   0  0  0  0  0  0  0  0  0  0  0  0
   -1.7139    4.3867   -6.4910 O   0  0  0  0  0  0  0  0  0  0  0  0
   -2.8833    2.2592   -6.0779 O   0  0  0  0  0  0  0  0  0  0  0  0
    0.5565    5.6607   -5.6397 O   0  0  0  0  0  0  0  0  0  0  0  0
    0.3859    3.9481   -1.6488 N   0  0  0  0  0  0  0  0  0  0  0  0
   -0.5138    3.5736   -0.7797 C   0  0  0  0  0  0  0  0  0  0  0  0
   -0.1905    3.1358    0.4716 N   0  0  0  0  0  0  0  0  0  0  0  0
    1.1176    2.9961    1.0061 C   0  0  0  0  0  0  0  0  0  0  0  0
    1.2444    2.6031    2.1414 O   0  0  0  0  0  0  0  0  0  0  0  0
   -1.8125    3.6674   -1.1294 N   0  0  0  0  0  0  0  0  0  0  0  0
    4.8534    3.8783   -1.4300 H   0  0  0  0  0  0  0  0  0  0  0  0
    3.9131    4.8508   -3.4840 H   0  0  0  0  0  0  0  0  0  0  0  0
    2.3321    6.5054   -4.1471 H   0  0  0  0  0  0  0  0  0  0  0  0
    1.5064    6.1179   -2.6292 H   0  0  0  0  0  0  0  0  0  0  0  0
   -0.2242    5.1469   -3.8632 H   0  0  0  0  0  0  0  0  0  0  0  0
    0.6660    3.0417   -3.6171 H   0  0  0  0  0  0  0  0  0  0  0  0
    1.4899    1.9701   -5.8255 H   0  0  0  0  0  0  0  0  0  0  0  0
    0.9288    3.4652   -6.6135 H   0  0  0  0  0  0  0  0  0  0  0  0
   -1.0468    5.0502   -6.2548 H   0  0  0  0  0  0  0  0  0  0  0  0
   -3.6025    2.1507   -5.4580 H   0  0  0  0  0  0  0  0  0  0  0  0
    1.4026    5.6640   -6.1060 H   0  0  0  0  0  0  0  0  0  0  0  0
   -0.9313    2.8825    1.1146 H   0  0  0  0  0  0  0  0  0  0  0  0
   -2.5018    3.1802   -0.5829 H   0  0  0  0  0  0  0  0  0  0  0  0
   -1.9864    3.7586   -2.1261 H   0  0  0  0  0  0  0  0  0  0  0  0
  1  2  2  0
  2  3  1  0
  3  4  2  0
  4  5  1  0
  5  6  1  0
  6  7  1  0
  7  8  1  0
  8  9  1  0
  9 10  1  0
  9 11  1  0
 11 12  1  0
 13 12  1  1
 13 14  2  0
 13 15  1  0
 13 16  1  0
  8 17  1  0
  4 18  1  0
 18 19  2  0
 19 20  1  0
 20 21  1  0
 21 22  2  0
 19 23  1  0
  5  1  1  0
 21  3  1  0
 10  6  1  0
  1 24  1  0
  6 25  1  6
  7 26  1  6
  7 27  1  0
  8 28  1  1
  9 29  1  1
 11 30  1  6
 11 31  1  0
 15 32  1  0
 16 33  1  0
 17 34  1  0
 20 35  1  0
 23 36  1  0
 23 37  1  0
M  END
$$$$
