 energy: -74.394007491820 gnorm: 0.000047561152 xtb: 6.5.1 (9af7eec)
     RDKit          3D

 37 39  0  0  0  0  0  0  0  0999 V2000
   -0.3013    5.0253    3.9799 C   0  0  0  0  0  0  0  0  0  0  0  0
    0.6636    5.1832    4.8238 N   0  0  0  0  0  0  0  0  0  0  0  0
    1.5952    5.9431    4.1702 C   0  0  0  0  0  0  0  0  0  0  0  0
    1.1400    6.2331    2.8816 C   0  0  0  0  0  0  0  0  0  0  0  0
   -0.0803    5.6325    2.7651 N   0  0  0  0  0  0  0  0  0  0  0  0
   -1.0089    5.6351    1.6591 C   0  0  2  0  0  0  0  0  0  0  0  0
   -0.3845    5.2131    0.3317 C   0  0  2  0  0  0  0  0  0  0  0  0
   -0.0375    6.5337   -0.3764 C   0  0  2  0  0  0  0  0  0  0  0  0
   -0.8441    7.6023    0.4227 C   0  0  2  0  0  0  0  0  0  0  0  0
   -1.5457    6.9224    1.4543 O   0  0  0  0  0  0  0  0  0  0  0  0
   -1.8902    8.3288   -0.4242 C   0  0  2  0  0  0  0  0  0  0  0  0
   -2.8489    7.4227   -0.9196 O   0  0  0  0  0  0  0  0  0  0  0  0
   -3.8828    6.6514    0.0386 P   0  0  1  0  0  5  0  0  0  0  0  0
   -3.5881    5.2446    0.3262 O   0  0  0  0  0  0  0  0  0  0  0  0
   -4.1917    7.6015    1.2771 O   0  0  0  0  0  0  0  0  0  0  0  0
   -5.1851    6.8426   -0.8444 O   0  0  0  0  0  0  0  0  0  0  0  0
   -0.2958    6.5288   -1.7456 O   0  0  0  0  0  0  0  0  0  0  0  0
    1.7867    6.9680    1.9476 N   0  0  0  0  0  0  0  0  0  0  0  0
    2.9514    7.4097    2.3314 C   0  0  0  0  0  0  0  0  0  0  0  0
    3.4766    7.1811    3.5656 N   0  0  0  0  0  0  0  0  0  0  0  0
    2.8698    6.4322    4.6089 C   0  0  0  0  0  0  0  0  0  0  0  0
    3.4560    6.3117    5.6568 O   0  0  0  0  0  0  0  0  0  0  0  0
    3.7104    8.0994    1.4434 N   0  0  0  0  0  0  0  0  0  0  0  0
   -1.1970    4.4705    4.1760 H   0  0  0  0  0  0  0  0  0  0  0  0
   -1.8426    4.9851    1.9430 H   0  0  0  0  0  0  0  0  0  0  0  0
   -1.1361    4.6766   -0.2479 H   0  0  0  0  0  0  0  0  0  0  0  0
    0.4861    4.5794    0.4775 H   0  0  0  0  0  0  0  0  0  0  0  0
    1.0293    6.7474   -0.2791 H   0  0  0  0  0  0  0  0  0  0  0  0
   -0.1627    8.3351    0.8729 H   0  0  0  0  0  0  0  0  0  0  0  0
   -1.4183    8.7873   -1.2965 H   0  0  0  0  0  0  0  0  0  0  0  0
   -2.3782    9.0961    0.1839 H   0  0  0  0  0  0  0  0  0  0  0  0
   -3.5820    7.4239    1.9943 H   0  0  0  0  0  0  0  0  0  0  0  0
   -5.7038    6.0403   -0.8254 H   0  0  0  0  0  0  0  0  0  0  0  0
   -1.2377    6.3560   -1.8867 H   0  0  0  0  0  0  0  0  0  0  0  0
    4.3958    7.5429    3.7906 H   0  0  0  0  0  0  0  0  0  0  0  0
    4.4820    8.6546    1.7683 H   0  0  0  0  0  0  0  0  0  0  0  0
    3.2639    8.3722    0.5854 H   0  0  0  0  0  0  0  0  0  0  0  0
  1  2  2  0
  2  3  1  0
  3  4  2  0
  4  5  1  0
  5  6  1  0
  6  7  1  0
  7  8  1  0
  8  9  1  0
  9 10  1  0
  9 11  1  0
 11 12  1  0
 13 12  1  6
 13 14  2  0
 13 15  1  0
 13 16  1  0
  8 17  1  0
  4 18  1  0
 18 19  2  0
 19 20  1  0
 20 21  1  0
 21 22  2  0
 19 23  1  0
  5  1  1  0
 21  3  1  0
 10  6  1  0
  1 24  1  0
  6 25  1  1
  7 26  1  6
  7 27  1  0
  8 28  1  6
  9 29  1  1
 11 30  1  6
 11 31  1  0
 15 32  1  0
 16 33  1  0
 17 34  1  0
 20 35  1  0
 23 36  1  0
 23 37  1  0
M  END
$$$$
