-40.19642833
     RDKit          3D

 26 25  0  0  1  0  0  0  0  0999 V2000
    0.9203    0.1153   -0.4647 N   0  0  0  0  0  0  0  0  0  0  0  0
   -0.2816    0.1189    0.3322 C   0  0  2  0  0  0  0  0  0  0  0  0
   -1.1907   -1.0378   -0.1032 C   0  0  0  0  0  0  0  0  0  0  0  0
   -2.3516   -0.8797   -0.4390 O   0  0  0  0  0  0  0  0  0  0  0  0
   -1.0331    1.4843    0.2579 C   0  0  2  0  0  0  0  0  0  0  0  0
   -2.1911    1.4399    1.0428 O   0  0  0  0  0  0  0  0  0  0  0  0
   -1.3239    1.8984   -1.1848 C   0  0  2  0  0  0  0  0  0  0  0  0
    0.7884   -0.0169   -1.4589 H   0  0  0  0  0  0  0  0  0  0  0  0
   -0.0248   -0.0551    1.3835 H   0  0  0  0  0  0  0  0  0  0  0  0
   -0.3939    2.2449    0.7237 H   0  0  0  0  0  0  0  0  0  0  0  0
   -2.7884    0.8003    0.6225 H   0  0  0  0  0  0  0  0  0  0  0  0
   -1.9159    1.1359   -1.6848 H   0  0  0  0  0  0  0  0  0  0  0  0
   -0.3986    2.0612   -1.7311 H   0  0  0  0  0  0  0  0  0  0  0  0
   -1.8897    2.8265   -1.1768 H   0  0  0  0  0  0  0  0  0  0  0  0
   -0.6450   -2.2667   -0.0914 N   0  0  0  0  0  0  0  0  0  0  0  0
   -1.2685   -2.9955   -0.4105 H   0  0  0  0  0  0  0  0  0  0  0  0
    0.6690   -2.6711    0.3467 C   0  0  1  0  0  0  0  0  0  0  0  0
    0.9282   -2.1822    1.2860 H   0  0  0  0  0  0  0  0  0  0  0  0
    0.6672   -3.7465    0.5090 H   0  0  0  0  0  0  0  0  0  0  0  0
    1.4355   -2.4295   -0.3930 H   0  0  0  0  0  0  0  0  0  0  0  0
    2.1816    0.4788   -0.1141 C   0  0  0  0  0  0  0  0  0  0  0  0
    3.0595    0.5026   -0.9501 O   0  0  0  0  0  0  0  0  0  0  0  0
    2.4162    0.7989    1.3432 C   0  0  2  0  0  0  0  0  0  0  0  0
    1.7506    1.5903    1.6769 H   0  0  0  0  0  0  0  0  0  0  0  0
    3.4466    1.1214    1.4610 H   0  0  0  0  0  0  0  0  0  0  0  0
    2.2528   -0.0837    1.9582 H   0  0  0  0  0  0  0  0  0  0  0  0
  1 21  1  0
  1  2  1  0
  2  9  1  1
  3 15  1  0
  3  2  1  0
  4  3  2  0
  5  2  1  0
  5 10  1  1
  5  6  1  0
  7 14  1  1
  7  5  1  0
  8  1  1  0
 11  6  1  0
 12  7  1  0
 13  7  1  0
 15 17  1  0
 16 15  1  0
 17 19  1  1
 17 18  1  0
 20 17  1  0
 21 23  1  0
 22 21  2  0
 23 25  1  6
 23 24  1  0
 23 26  1  0
M  END
$$$$
