-40.18692871
     RDKit          3D

 26 25  0  0  1  0  0  0  0  0999 V2000
    0.8415    0.7754    0.3602 N   0  0  0  0  0  0  0  0  0  0  0  0
   -0.4325    0.1393    0.6160 C   0  0  2  0  0  0  0  0  0  0  0  0
   -0.7052   -1.1075   -0.2228 C   0  0  0  0  0  0  0  0  0  0  0  0
   -1.1286   -1.0405   -1.3646 O   0  0  0  0  0  0  0  0  0  0  0  0
   -1.5974    1.1398    0.3175 C   0  0  2  0  0  0  0  0  0  0  0  0
   -1.5119    1.6396   -0.9821 O   0  0  0  0  0  0  0  0  0  0  0  0
   -1.6026    2.3186    1.2863 C   0  0  2  0  0  0  0  0  0  0  0  0
    0.8900    1.7146    0.7369 H   0  0  0  0  0  0  0  0  0  0  0  0
   -0.4907   -0.1225    1.6822 H   0  0  0  0  0  0  0  0  0  0  0  0
   -2.5363    0.5702    0.4519 H   0  0  0  0  0  0  0  0  0  0  0  0
   -1.4586    0.8772   -1.5832 H   0  0  0  0  0  0  0  0  0  0  0  0
   -0.7427    2.9589    1.1092 H   0  0  0  0  0  0  0  0  0  0  0  0
   -1.6000    1.9734    2.3167 H   0  0  0  0  0  0  0  0  0  0  0  0
   -2.4955    2.9113    1.1106 H   0  0  0  0  0  0  0  0  0  0  0  0
   -0.5336   -2.3014    0.3727 N   0  0  0  0  0  0  0  0  0  0  0  0
   -0.8065   -3.0913   -0.1962 H   0  0  0  0  0  0  0  0  0  0  0  0
   -0.0119   -2.5863    1.6884 C   0  0  1  0  0  0  0  0  0  0  0  0
   -0.7699   -2.4310    2.4617 H   0  0  0  0  0  0  0  0  0  0  0  0
    0.3027   -3.6271    1.7215 H   0  0  0  0  0  0  0  0  0  0  0  0
    0.8522   -1.9590    1.9086 H   0  0  0  0  0  0  0  0  0  0  0  0
    1.9367    0.4896   -0.3914 C   0  0  0  0  0  0  0  0  0  0  0  0
    2.8353    1.3047   -0.4375 O   0  0  0  0  0  0  0  0  0  0  0  0
    2.0206   -0.8392   -1.1007 C   0  0  2  0  0  0  0  0  0  0  0  0
    1.9099   -1.6659   -0.4041 H   0  0  0  0  0  0  0  0  0  0  0  0
    2.9969   -0.9013   -1.5745 H   0  0  0  0  0  0  0  0  0  0  0  0
    1.2532   -0.9107   -1.8669 H   0  0  0  0  0  0  0  0  0  0  0  0
  1  2  1  0
  1  8  1  0
  2  9  1  1
  3 15  1  0
  3  2  1  0
  4  3  2  0
  5 10  1  6
  5  2  1  0
  5  7  1  0
  6  5  1  0
  7 13  1  1
 11  6  1  0
 12  7  1  0
 14  7  1  0
 15 17  1  0
 16 15  1  0
 17 19  1  6
 17 20  1  0
 17 18  1  0
 21  1  1  0
 22 21  2  0
 23 24  1  1
 23 21  1  0
 25 23  1  0
 26 23  1  0
M  END
$$$$
