-40.19567910
     RDKit          3D

 26 25  0  0  1  0  0  0  0  0999 V2000
    0.9423    0.0860   -0.4557 N   0  0  0  0  0  0  0  0  0  0  0  0
   -0.2655    0.0978    0.3357 C   0  0  2  0  0  0  0  0  0  0  0  0
   -1.1926   -1.0473   -0.0960 C   0  0  0  0  0  0  0  0  0  0  0  0
   -2.3535   -0.8631   -0.4204 O   0  0  0  0  0  0  0  0  0  0  0  0
   -1.0022    1.4721    0.2526 C   0  0  2  0  0  0  0  0  0  0  0  0
   -2.1585    1.4508    1.0401 O   0  0  0  0  0  0  0  0  0  0  0  0
   -1.2882    1.8802   -1.1929 C   0  0  2  0  0  0  0  0  0  0  0  0
    0.8163   -0.0641   -1.4481 H   0  0  0  0  0  0  0  0  0  0  0  0
   -0.0174   -0.0748    1.3897 H   0  0  0  0  0  0  0  0  0  0  0  0
   -0.3520    2.2277    0.7113 H   0  0  0  0  0  0  0  0  0  0  0  0
   -2.7649    0.8150    0.6267 H   0  0  0  0  0  0  0  0  0  0  0  0
   -0.3610    2.0239   -1.7414 H   0  0  0  0  0  0  0  0  0  0  0  0
   -1.8384    2.8177   -1.1908 H   0  0  0  0  0  0  0  0  0  0  0  0
   -1.8934    1.1243   -1.6869 H   0  0  0  0  0  0  0  0  0  0  0  0
   -0.6837   -2.2911   -0.1005 N   0  0  0  0  0  0  0  0  0  0  0  0
   -1.3504   -2.9969   -0.3891 H   0  0  0  0  0  0  0  0  0  0  0  0
    0.5943   -2.7928    0.3392 C   0  0  1  0  0  0  0  0  0  0  0  0
    0.4617   -3.4534    1.1998 H   0  0  0  0  0  0  0  0  0  0  0  0
    1.0660   -3.3608   -0.4648 H   0  0  0  0  0  0  0  0  0  0  0  0
    1.2550   -1.9786    0.6148 H   0  0  0  0  0  0  0  0  0  0  0  0
    2.1829    0.5288   -0.1148 C   0  0  0  0  0  0  0  0  0  0  0  0
    3.0558    0.5932   -0.9530 O   0  0  0  0  0  0  0  0  0  0  0  0
    2.4056    0.8658    1.3413 C   0  0  2  0  0  0  0  0  0  0  0  0
    1.7324    1.6565    1.6614 H   0  0  0  0  0  0  0  0  0  0  0  0
    3.4325    1.1988    1.4620 H   0  0  0  0  0  0  0  0  0  0  0  0
    2.2425   -0.0091    1.9679 H   0  0  0  0  0  0  0  0  0  0  0  0
  1 21  1  0
  1  2  1  0
  2  9  1  1
  3  2  1  0
  4  3  2  0
  5  2  1  0
  5 10  1  1
  5  6  1  0
  7 13  1  1
  7  5  1  0
  8  1  1  0
 11  6  1  0
 12  7  1  0
 14  7  1  0
 15  3  1  0
 15 17  1  0
 16 15  1  0
 17 20  1  1
 17 18  1  0
 19 17  1  0
 21 23  1  0
 22 21  2  0
 23 25  1  6
 23 24  1  0
 23 26  1  0
M  END
$$$$
