-40.19554876
     RDKit          3D

 26 25  0  0  1  0  0  0  0  0999 V2000
    1.0452    0.3216   -0.6957 N   0  0  0  0  0  0  0  0  0  0  0  0
    0.0121   -0.0849    0.2170 C   0  0  2  0  0  0  0  0  0  0  0  0
   -0.8282   -1.1489   -0.4963 C   0  0  0  0  0  0  0  0  0  0  0  0
   -1.0121   -1.1039   -1.6980 O   0  0  0  0  0  0  0  0  0  0  0  0
   -0.9128    1.1169    0.6128 C   0  0  2  0  0  0  0  0  0  0  0  0
   -2.0146    0.6663    1.3678 O   0  0  0  0  0  0  0  0  0  0  0  0
   -1.3469    1.9085   -0.6149 C   0  0  2  0  0  0  0  0  0  0  0  0
    0.7887    0.2437   -1.6744 H   0  0  0  0  0  0  0  0  0  0  0  0
    0.4520   -0.5021    1.1253 H   0  0  0  0  0  0  0  0  0  0  0  0
   -0.3535    1.7687    1.2932 H   0  0  0  0  0  0  0  0  0  0  0  0
   -2.6832    0.3256    0.7614 H   0  0  0  0  0  0  0  0  0  0  0  0
   -2.0655    2.6698   -0.3191 H   0  0  0  0  0  0  0  0  0  0  0  0
   -1.8062    1.2496   -1.3498 H   0  0  0  0  0  0  0  0  0  0  0  0
   -0.4911    2.3966   -1.0716 H   0  0  0  0  0  0  0  0  0  0  0  0
   -1.3860   -2.1118    0.2607 N   0  0  0  0  0  0  0  0  0  0  0  0
   -1.8863   -2.8139   -0.2672 H   0  0  0  0  0  0  0  0  0  0  0  0
   -1.2194   -2.3488    1.6770 C   0  0  1  0  0  0  0  0  0  0  0  0
   -1.9647   -3.0728    1.9969 H   0  0  0  0  0  0  0  0  0  0  0  0
   -0.2272   -2.7520    1.9006 H   0  0  0  0  0  0  0  0  0  0  0  0
   -1.3716   -1.4261    2.2362 H   0  0  0  0  0  0  0  0  0  0  0  0
    2.2852    0.7955   -0.4336 C   0  0  0  0  0  0  0  0  0  0  0  0
    3.0272    1.1242   -1.3342 O   0  0  0  0  0  0  0  0  0  0  0  0
    2.6796    0.8716    1.0265 C   0  0  2  0  0  0  0  0  0  0  0  0
    2.7181   -0.1279    1.4551 H   0  0  0  0  0  0  0  0  0  0  0  0
    1.9722    1.4726    1.5911 H   0  0  0  0  0  0  0  0  0  0  0  0
    3.6665    1.3203    1.0926 H   0  0  0  0  0  0  0  0  0  0  0  0
  1 21  1  0
  1  2  1  0
  2  5  1  0
  2  9  1  1
  3  2  1  0
  3 15  1  0
  4  3  2  0
  5 10  1  1
  5  6  1  0
  7 12  1  1
  7  5  1  0
  8  1  1  0
 11  6  1  0
 13  7  1  0
 14  7  1  0
 15 17  1  0
 16 15  1  0
 17 19  1  6
 17 18  1  0
 17 20  1  0
 21 23  1  0
 22 21  2  0
 23 26  1  6
 23 24  1  0
 23 25  1  0
M  END
$$$$
