-40.19483457
     RDKit          3D

 26 25  0  0  1  0  0  0  0  0999 V2000
    0.7171    0.8472   -0.3860 N   0  0  0  0  0  0  0  0  0  0  0  0
   -0.2660    0.1515    0.4035 C   0  0  2  0  0  0  0  0  0  0  0  0
   -0.6848   -1.1579   -0.2706 C   0  0  0  0  0  0  0  0  0  0  0  0
   -1.0395   -1.1634   -1.4376 O   0  0  0  0  0  0  0  0  0  0  0  0
   -1.5477    1.0336    0.4410 C   0  0  2  0  0  0  0  0  0  0  0  0
   -1.9029    1.4150   -0.8570 O   0  0  0  0  0  0  0  0  0  0  0  0
   -1.3215    2.2905    1.2744 C   0  0  2  0  0  0  0  0  0  0  0  0
    0.3323    1.5055   -1.0555 H   0  0  0  0  0  0  0  0  0  0  0  0
    0.1034   -0.0098    1.4177 H   0  0  0  0  0  0  0  0  0  0  0  0
   -2.3574    0.4347    0.8979 H   0  0  0  0  0  0  0  0  0  0  0  0
   -1.8421    0.6322   -1.4341 H   0  0  0  0  0  0  0  0  0  0  0  0
   -2.1952    2.9301    1.1923 H   0  0  0  0  0  0  0  0  0  0  0  0
   -0.4585    2.8337    0.9001 H   0  0  0  0  0  0  0  0  0  0  0  0
   -1.1621    2.0320    2.3175 H   0  0  0  0  0  0  0  0  0  0  0  0
   -0.7034   -2.2858    0.4639 N   0  0  0  0  0  0  0  0  0  0  0  0
   -1.0327   -3.0989   -0.0384 H   0  0  0  0  0  0  0  0  0  0  0  0
   -0.4129   -2.4480    1.8694 C   0  0  1  0  0  0  0  0  0  0  0  0
   -1.0766   -1.8360    2.4848 H   0  0  0  0  0  0  0  0  0  0  0  0
   -0.5633   -3.4909    2.1361 H   0  0  0  0  0  0  0  0  0  0  0  0
    0.6228   -2.1846    2.0939 H   0  0  0  0  0  0  0  0  0  0  0  0
    2.0393    0.5833   -0.5087 C   0  0  0  0  0  0  0  0  0  0  0  0
    2.7335    1.2134   -1.2757 O   0  0  0  0  0  0  0  0  0  0  0  0
    2.5801   -0.5106    0.3888 C   0  0  2  0  0  0  0  0  0  0  0  0
    2.0849   -1.4527    0.1636 H   0  0  0  0  0  0  0  0  0  0  0  0
    2.4202   -0.2575    1.4349 H   0  0  0  0  0  0  0  0  0  0  0  0
    3.6457   -0.6137    0.2066 H   0  0  0  0  0  0  0  0  0  0  0  0
  1  2  1  0
  2  5  1  0
  2  9  1  1
  3  2  1  0
  3 15  1  0
  4  3  2  0
  5 10  1  1
  5  7  1  0
  6  5  1  0
  7 14  1  1
  8  1  1  0
 11  6  1  0
 12  7  1  0
 13  7  1  0
 15 17  1  0
 16 15  1  0
 17 20  1  6
 17 19  1  0
 17 18  1  0
 21  1  1  0
 21 23  1  0
 22 21  2  0
 23 25  1  1
 24 23  1  0
 26 23  1  0
M  END
$$$$
