-40.19417297
     RDKit          3D

 26 25  0  0  1  0  0  0  0  0999 V2000
    0.7835    0.5548   -0.3405 N   0  0  0  0  0  0  0  0  0  0  0  0
   -0.4333    0.4701    0.4167 C   0  0  2  0  0  0  0  0  0  0  0  0
   -0.8454   -0.9448    0.8703 C   0  0  0  0  0  0  0  0  0  0  0  0
   -1.4320   -1.0733    1.9302 O   0  0  0  0  0  0  0  0  0  0  0  0
   -1.5887    1.1193   -0.3724 C   0  0  2  0  0  0  0  0  0  0  0  0
   -1.6152    0.5355   -1.6625 O   0  0  0  0  0  0  0  0  0  0  0  0
   -1.4067    2.6340   -0.4543 C   0  0  2  0  0  0  0  0  0  0  0  0
    0.6731    0.6236   -1.3434 H   0  0  0  0  0  0  0  0  0  0  0  0
   -0.3310    1.0355    1.3516 H   0  0  0  0  0  0  0  0  0  0  0  0
   -2.5248    0.8899    0.1598 H   0  0  0  0  0  0  0  0  0  0  0  0
   -2.2986    0.9710   -2.1827 H   0  0  0  0  0  0  0  0  0  0  0  0
   -0.4503    2.8723   -0.9140 H   0  0  0  0  0  0  0  0  0  0  0  0
   -1.4396    3.0697    0.5397 H   0  0  0  0  0  0  0  0  0  0  0  0
   -2.2023    3.0773   -1.0509 H   0  0  0  0  0  0  0  0  0  0  0  0
   -0.5537   -2.0140    0.1134 N   0  0  0  0  0  0  0  0  0  0  0  0
   -0.8530   -2.8847    0.5313 H   0  0  0  0  0  0  0  0  0  0  0  0
    0.0340   -2.0973   -1.2049 C   0  0  1  0  0  0  0  0  0  0  0  0
    1.1191   -1.9738   -1.1685 H   0  0  0  0  0  0  0  0  0  0  0  0
   -0.1887   -3.0781   -1.6194 H   0  0  0  0  0  0  0  0  0  0  0  0
   -0.3967   -1.3393   -1.8564 H   0  0  0  0  0  0  0  0  0  0  0  0
    2.0459    0.3412    0.1019 C   0  0  0  0  0  0  0  0  0  0  0  0
    2.9766    0.3130   -0.6776 O   0  0  0  0  0  0  0  0  0  0  0  0
    2.2017    0.1708    1.5941 C   0  0  2  0  0  0  0  0  0  0  0  0
    1.9266    1.0928    2.1025 H   0  0  0  0  0  0  0  0  0  0  0  0
    3.2397   -0.0599    1.8153 H   0  0  0  0  0  0  0  0  0  0  0  0
    1.5625   -0.6289    1.9608 H   0  0  0  0  0  0  0  0  0  0  0  0
  1 21  1  0
  1  2  1  0
  2  3  1  0
  2  9  1  1
  3  4  2  0
  5 10  1  1
  5  2  1  0
  6  5  1  0
  7  5  1  0
  7 13  1  1
  8  1  1  0
 11  6  1  0
 12  7  1  0
 14  7  1  0
 15 16  1  0
 15  3  1  0
 17 18  1  1
 17 15  1  0
 19 17  1  0
 20 17  1  0
 21 23  1  0
 22 21  2  0
 23 25  1  6
 23 26  1  0
 23 24  1  0
M  END
$$$$
