 energy: -51.930604718337 gnorm: 0.000035621573 xtb: 6.5.1 (9af7eec)
     RDKit          3D

 33 33  0  0  0  0  0  0  0  0999 V2000
   -1.3635   -1.7375   -1.5948 N   0  0  0  0  0  0  0  0  0  0  0  0
   -0.2099   -1.1348   -0.9779 C   0  0  2  0  0  0  0  0  0  0  0  0
    0.1608   -1.9828    0.2380 C   0  0  0  0  0  0  0  0  0  0  0  0
   -0.6460   -2.7246    0.7643 O   0  0  0  0  0  0  0  0  0  0  0  0
   -0.5246    0.3155   -0.5310 C   0  0  1  0  0  0  0  0  0  0  0  0
    0.6962    1.0153   -0.0150 C   0  0  0  0  0  0  0  0  0  0  0  0
    1.6580    1.4845   -0.9022 C   0  0  0  0  0  0  0  0  0  0  0  0
    0.9150    1.1762    1.3490 C   0  0  0  0  0  0  0  0  0  0  0  0
    2.8099    2.0954   -0.4424 C   0  0  0  0  0  0  0  0  0  0  0  0
    2.0619    1.7842    1.8192 C   0  0  0  0  0  0  0  0  0  0  0  0
    3.0205    2.2481    0.9232 C   0  0  0  0  0  0  0  0  0  0  0  0
    4.1398    2.8369    1.4236 O   0  0  0  0  0  0  0  0  0  0  0  0
   -1.8963   -2.3484   -0.9893 H   0  0  0  0  0  0  0  0  0  0  0  0
    0.6055   -1.1117   -1.7104 H   0  0  0  0  0  0  0  0  0  0  0  0
   -0.9145    0.8379   -1.4068 H   0  0  0  0  0  0  0  0  0  0  0  0
   -1.3024    0.2829    0.2340 H   0  0  0  0  0  0  0  0  0  0  0  0
    1.4990    1.3747   -1.9648 H   0  0  0  0  0  0  0  0  0  0  0  0
    0.1762    0.8208    2.0522 H   0  0  0  0  0  0  0  0  0  0  0  0
    3.5476    2.4613   -1.1445 H   0  0  0  0  0  0  0  0  0  0  0  0
    2.2339    1.9154    2.8756 H   0  0  0  0  0  0  0  0  0  0  0  0
    4.7051    3.1354    0.7011 H   0  0  0  0  0  0  0  0  0  0  0  0
    1.4277   -1.8286    0.6592 N   0  0  0  0  0  0  0  0  0  0  0  0
    2.0191   -1.1533    0.2008 H   0  0  0  0  0  0  0  0  0  0  0  0
    1.9302   -2.4484    1.8618 C   0  0  1  0  0  0  0  0  0  0  0  0
    2.8114   -3.0518    1.6398 H   0  0  0  0  0  0  0  0  0  0  0  0
    2.1906   -1.6918    2.6042 H   0  0  0  0  0  0  0  0  0  0  0  0
    1.1425   -3.0884    2.2551 H   0  0  0  0  0  0  0  0  0  0  0  0
   -1.6499   -1.5914   -2.9063 C   0  0  0  0  0  0  0  0  0  0  0  0
   -0.9800   -0.8975   -3.6434 O   0  0  0  0  0  0  0  0  0  0  0  0
   -2.8747   -2.3619   -3.3498 C   0  0  2  0  0  0  0  0  0  0  0  0
   -3.0459   -2.1878   -4.4078 H   0  0  0  0  0  0  0  0  0  0  0  0
   -3.7444   -2.0356   -2.7844 H   0  0  0  0  0  0  0  0  0  0  0  0
   -2.7260   -3.4254   -3.1781 H   0  0  0  0  0  0  0  0  0  0  0  0
  1 13  1  0
  1 28  1  0
  1  2  1  0
  2  5  1  0
  2  3  1  0
  2 14  1  6
  3  4  1  0
  3 22  1  0
  5 16  1  1
  5 15  1  0
  5  6  1  0
  6  8  1  0
  6  7  1  0
  7 17  1  0
  7  9  1  0
  8 18  1  0
  8 10  1  0
  9 11  1  0
  9 19  1  0
 10 20  1  0
 10 11  1  0
 11 12  1  0
 12 21  1  0
 22 24  1  0
 22 23  1  0
 24 27  1  1
 24 25  1  0
 24 26  1  0
 28 30  1  0
 28 29  1  0
 30 31  1  6
 30 32  1  0
 30 33  1  0
M  END
$$$$
