 energy: -51.930741611166 gnorm: 0.000020734708 xtb: 6.5.1 (9af7eec)
     RDKit          3D

 33 33  0  0  0  0  0  0  0  0999 V2000
   -2.3381   -0.3348   -0.1487 N   0  0  0  0  0  0  0  0  0  0  0  0
   -0.9852   -0.6072    0.3058 C   0  0  2  0  0  0  0  0  0  0  0  0
   -0.4446    0.6029    1.1022 C   0  0  0  0  0  0  0  0  0  0  0  0
    0.4195    1.3396    0.6730 O   0  0  0  0  0  0  0  0  0  0  0  0
   -0.0836   -0.9142   -0.8922 C   0  0  1  0  0  0  0  0  0  0  0  0
   -0.6643   -2.0122   -1.7362 C   0  0  0  0  0  0  0  0  0  0  0  0
   -1.2940   -1.7336   -2.9407 C   0  0  0  0  0  0  0  0  0  0  0  0
   -0.6227   -3.3330   -1.3016 C   0  0  0  0  0  0  0  0  0  0  0  0
   -1.8665   -2.7418   -3.6968 C   0  0  0  0  0  0  0  0  0  0  0  0
   -1.1908   -4.3467   -2.0443 C   0  0  0  0  0  0  0  0  0  0  0  0
   -1.8201   -4.0561   -3.2517 C   0  0  0  0  0  0  0  0  0  0  0  0
   -2.3687   -5.0819   -3.9567 O   0  0  0  0  0  0  0  0  0  0  0  0
   -2.4450   -0.0546   -1.1106 H   0  0  0  0  0  0  0  0  0  0  0  0
   -1.0391   -1.4685    0.9832 H   0  0  0  0  0  0  0  0  0  0  0  0
    0.0415    0.0013   -1.4732 H   0  0  0  0  0  0  0  0  0  0  0  0
    0.8977   -1.1997   -0.5107 H   0  0  0  0  0  0  0  0  0  0  0  0
   -1.3275   -0.7173   -3.3091 H   0  0  0  0  0  0  0  0  0  0  0  0
   -0.1327   -3.5701   -0.3688 H   0  0  0  0  0  0  0  0  0  0  0  0
   -2.3485   -2.5078   -4.6375 H   0  0  0  0  0  0  0  0  0  0  0  0
   -1.1579   -5.3717   -1.7115 H   0  0  0  0  0  0  0  0  0  0  0  0
   -2.7545   -4.7490   -4.7759 H   0  0  0  0  0  0  0  0  0  0  0  0
   -1.0378    0.7307    2.2978 N   0  0  0  0  0  0  0  0  0  0  0  0
   -1.8082    0.1088    2.5254 H   0  0  0  0  0  0  0  0  0  0  0  0
   -0.7428    1.8165    3.1998 C   0  0  1  0  0  0  0  0  0  0  0  0
    0.0740    2.3949    2.7708 H   0  0  0  0  0  0  0  0  0  0  0  0
   -1.6146    2.4610    3.3296 H   0  0  0  0  0  0  0  0  0  0  0  0
   -0.4413    1.4270    4.1733 H   0  0  0  0  0  0  0  0  0  0  0  0
   -3.4259   -0.5401    0.6171 C   0  0  0  0  0  0  0  0  0  0  0  0
   -3.3456   -0.8585    1.7914 O   0  0  0  0  0  0  0  0  0  0  0  0
   -4.7373   -0.3321   -0.1039 C   0  0  2  0  0  0  0  0  0  0  0  0
   -5.5581   -0.4949    0.5881 H   0  0  0  0  0  0  0  0  0  0  0  0
   -4.8192   -1.0346   -0.9307 H   0  0  0  0  0  0  0  0  0  0  0  0
   -4.7926    0.6807   -0.4967 H   0  0  0  0  0  0  0  0  0  0  0  0
  1 13  1  0
  1 28  1  0
  1  2  1  0
  2  5  1  0
  2  3  1  0
  2 14  1  1
  3  4  1  0
  3 22  1  0
  5 16  1  1
  5 15  1  0
  5  6  1  0
  6  8  1  0
  6  7  1  0
  7 17  1  0
  7  9  1  0
  8 18  1  0
  8 10  1  0
  9 11  1  0
  9 19  1  0
 10 20  1  0
 10 11  1  0
 11 12  1  0
 12 21  1  0
 22 24  1  0
 22 23  1  0
 24 27  1  1
 24 25  1  0
 24 26  1  0
 28 30  1  0
 28 29  1  0
 30 31  1  1
 30 32  1  0
 30 33  1  0
M  END
$$$$
