 energy: -51.927899236877 gnorm: 0.000035675848 xtb: 6.5.1 (9af7eec)
     RDKit          3D

 33 33  0  0  0  0  0  0  0  0999 V2000
   -2.3601   -0.8151    0.1114 N   0  0  0  0  0  0  0  0  0  0  0  0
   -1.0348   -0.4911   -0.3507 C   0  0  2  0  0  0  0  0  0  0  0  0
   -0.7772   -0.8968   -1.8144 C   0  0  0  0  0  0  0  0  0  0  0  0
    0.1165   -0.3886   -2.4586 O   0  0  0  0  0  0  0  0  0  0  0  0
    0.0179   -1.1890    0.5378 C   0  0  1  0  0  0  0  0  0  0  0  0
   -0.1376   -2.6828    0.4971 C   0  0  0  0  0  0  0  0  0  0  0  0
   -0.8876   -3.3498    1.4573 C   0  0  0  0  0  0  0  0  0  0  0  0
    0.4264   -3.4238   -0.5375 C   0  0  0  0  0  0  0  0  0  0  0  0
   -1.0872   -4.7173    1.3818 C   0  0  0  0  0  0  0  0  0  0  0  0
    0.2330   -4.7867   -0.6232 C   0  0  0  0  0  0  0  0  0  0  0  0
   -0.5343   -5.4443    0.3356 C   0  0  0  0  0  0  0  0  0  0  0  0
   -0.7089   -6.7857    0.2106 O   0  0  0  0  0  0  0  0  0  0  0  0
   -2.4491   -1.6488    0.6792 H   0  0  0  0  0  0  0  0  0  0  0  0
   -0.8697    0.5909   -0.2888 H   0  0  0  0  0  0  0  0  0  0  0  0
    1.0033   -0.9015    0.1691 H   0  0  0  0  0  0  0  0  0  0  0  0
   -0.0945   -0.8238    1.5605 H   0  0  0  0  0  0  0  0  0  0  0  0
   -1.3085   -2.8045    2.2911 H   0  0  0  0  0  0  0  0  0  0  0  0
    1.0272   -2.9237   -1.2820 H   0  0  0  0  0  0  0  0  0  0  0  0
   -1.6727   -5.2214    2.1392 H   0  0  0  0  0  0  0  0  0  0  0  0
    0.6703   -5.3650   -1.4212 H   0  0  0  0  0  0  0  0  0  0  0  0
   -1.2433   -7.1194    0.9414 H   0  0  0  0  0  0  0  0  0  0  0  0
   -1.5962   -1.8527   -2.2858 N   0  0  0  0  0  0  0  0  0  0  0  0
   -2.3099   -2.2321   -1.6831 H   0  0  0  0  0  0  0  0  0  0  0  0
   -1.4641   -2.4134   -3.6073 C   0  0  1  0  0  0  0  0  0  0  0  0
   -2.3883   -2.2845   -4.1727 H   0  0  0  0  0  0  0  0  0  0  0  0
   -0.6548   -1.8848   -4.1086 H   0  0  0  0  0  0  0  0  0  0  0  0
   -1.2232   -3.4764   -3.5492 H   0  0  0  0  0  0  0  0  0  0  0  0
   -3.5274   -0.1960   -0.1999 C   0  0  0  0  0  0  0  0  0  0  0  0
   -4.5824   -0.6391    0.2042 O   0  0  0  0  0  0  0  0  0  0  0  0
   -3.4085    1.0435   -1.0522 C   0  0  2  0  0  0  0  0  0  0  0  0
   -4.4052    1.3914   -1.3073 H   0  0  0  0  0  0  0  0  0  0  0  0
   -2.8482    0.8358   -1.9607 H   0  0  0  0  0  0  0  0  0  0  0  0
   -2.8920    1.8243   -0.4973 H   0  0  0  0  0  0  0  0  0  0  0  0
  1 13  1  0
  1 28  1  0
  1  2  1  0
  2  5  1  0
  2  3  1  0
  2 14  1  6
  3  4  1  0
  3 22  1  0
  5 16  1  1
  5 15  1  0
  5  6  1  0
  6  8  1  0
  6  7  1  0
  7 17  1  0
  7  9  1  0
  8 18  1  0
  8 10  1  0
  9 11  1  0
  9 19  1  0
 10 20  1  0
 10 11  1  0
 11 12  1  0
 12 21  1  0
 22 24  1  0
 22 23  1  0
 24 27  1  1
 24 25  1  0
 24 26  1  0
 28 30  1  0
 28 29  1  0
 30 31  1  6
 30 32  1  0
 30 33  1  0
M  END
$$$$
