 energy: -25.101753930069 gnorm: 0.000022406411 xtb: 6.5.1 (9af7eec)
     RDKit          3D

 14 13  0  0  0  0  0  0  0  0999 V2000
   -0.3432    1.1758    1.1799 N   0  0  0  0  0  0  0  0  0  0  0  0
    0.0211    0.0375    0.3566 C   0  0  2  0  0  0  0  0  0  0  0  0
    0.9858    0.3242   -0.7837 C   0  0  0  0  0  0  0  0  0  0  0  0
    1.6075   -0.5084   -1.3850 O   0  0  0  0  0  0  0  0  0  0  0  0
    1.0511    1.6304   -1.0808 O   0  0  0  0  0  0  0  0  0  0  0  0
   -1.2819   -0.5396   -0.2433 C   0  0  1  0  0  0  0  0  0  0  0  0
   -2.1756   -0.8934    0.7686 O   0  0  0  0  0  0  0  0  0  0  0  0
    0.4667   -0.7321    0.9963 H   0  0  0  0  0  0  0  0  0  0  0  0
   -1.7282    0.2155   -0.9100 H   0  0  0  0  0  0  0  0  0  0  0  0
   -1.0663   -1.4406   -0.8203 H   0  0  0  0  0  0  0  0  0  0  0  0
   -0.6685    1.9382    0.5932 H   0  0  0  0  0  0  0  0  0  0  0  0
    0.4543    1.5131    1.7064 H   0  0  0  0  0  0  0  0  0  0  0  0
   -2.1722   -0.1708    1.4124 H   0  0  0  0  0  0  0  0  0  0  0  0
    1.6508    1.7755   -1.8295 H   0  0  0  0  0  0  0  0  0  0  0  0
  1  2  1  0
  1 12  1  0
  1 11  1  0
  2  8  1  1
  2  3  1  0
  3  5  1  0
  3  4  2  0
  5 14  1  0
  6  9  1  6
  6  2  1  0
  7 13  1  0
  7  6  1  0
 10  6  1  0
M  END
$$$$
