-61.56401365
     RDKit          3D

 37 37  0  0  1  0  0  0  0  0999 V2000
   -0.5111   -2.3029    0.0592 O   0  0  0  0  0  0  0  0  0  0  0  0
   -1.4135   -3.0442   -0.2156 C   0  0  0  0  0  0  0  0  0  0  0  0
   -1.2617   -4.3639   -0.3559 O   0  0  0  0  0  0  0  0  0  0  0  0
   -0.3414   -4.6227   -0.1872 H   0  0  0  0  0  0  0  0  0  0  0  0
   -2.8524   -2.6213   -0.4471 C   0  0  2  0  0  0  0  0  0  0  0  0
   -3.4591   -3.0215    0.3732 H   0  0  0  0  0  0  0  0  0  0  0  0
   -3.2045   -3.0477   -1.3899 H   0  0  0  0  0  0  0  0  0  0  0  0
   -2.9912   -1.1911   -0.4419 N   0  0  0  0  0  0  0  0  0  0  0  0
   -2.5061   -0.6558   -1.1624 H   0  0  0  0  0  0  0  0  0  0  0  0
   -3.3690   -0.5363    0.6745 C   0  0  0  0  0  0  0  0  0  0  0  0
   -3.8129   -1.0721    1.6668 O   0  0  0  0  0  0  0  0  0  0  0  0
   -3.2168    0.9866    0.5389 C   0  0  2  0  0  0  0  0  0  0  0  0
   -3.6878    1.4676    1.3958 H   0  0  0  0  0  0  0  0  0  0  0  0
   -3.7095    1.3054   -0.3855 H   0  0  0  0  0  0  0  0  0  0  0  0
   -1.8251    1.3759    0.4808 N   0  0  0  0  0  0  0  0  0  0  0  0
   -1.3622    1.7201    1.3108 H   0  0  0  0  0  0  0  0  0  0  0  0
   -1.0609    1.2534   -0.6119 C   0  0  0  0  0  0  0  0  0  0  0  0
   -1.4571    0.7945   -1.6736 O   0  0  0  0  0  0  0  0  0  0  0  0
    0.3765    1.7139   -0.4042 C   0  0  1  0  0  0  0  0  0  0  0  0
    0.4355    2.7009    0.6663 N   0  0  0  0  0  0  0  0  0  0  0  0
    0.0606    3.5895    0.3508 H   0  0  0  0  0  0  0  0  0  0  0  0
    1.4020    2.8520    0.9376 H   0  0  0  0  0  0  0  0  0  0  0  0
    0.7493    2.0885   -1.3721 H   0  0  0  0  0  0  0  0  0  0  0  0
    1.2060    0.4747   -0.0103 C   0  0  2  0  0  0  0  0  0  0  0  0
    1.0031   -0.3201   -0.7285 H   0  0  0  0  0  0  0  0  0  0  0  0
    0.8772    0.1360    0.9725 H   0  0  0  0  0  0  0  0  0  0  0  0
    2.6691    0.8078    0.0060 C   0  0  0  0  0  0  0  0  0  0  0  0
    3.3244    1.0916    1.1979 C   0  0  0  0  0  0  0  0  0  0  0  0
    2.7837    1.0259    2.1317 H   0  0  0  0  0  0  0  0  0  0  0  0
    4.6633    1.4450    1.2004 C   0  0  0  0  0  0  0  0  0  0  0  0
    5.1603    1.6606    2.1351 H   0  0  0  0  0  0  0  0  0  0  0  0
    5.3635    1.5217    0.0092 C   0  0  0  0  0  0  0  0  0  0  0  0
    6.4077    1.7973    0.0101 H   0  0  0  0  0  0  0  0  0  0  0  0
    4.7196    1.2394   -1.1844 C   0  0  0  0  0  0  0  0  0  0  0  0
    5.2626    1.2934   -2.1168 H   0  0  0  0  0  0  0  0  0  0  0  0
    3.3824    0.8870   -1.1848 C   0  0  0  0  0  0  0  0  0  0  0  0
    2.8827    0.6646   -2.1170 H   0  0  0  0  0  0  0  0  0  0  0  0
  2  1  2  0
  3  2  1  0
  3  4  1  0
  5  8  1  0
  5  2  1  0
  5  6  1  1
  7  5  1  0
  8 10  1  0
  9  8  1  0
 10 11  2  0
 12 10  1  0
 12 13  1  1
 14 12  1  0
 15 12  1  0
 15 16  1  0
 17 19  1  0
 17 15  1  0
 18 17  2  0
 19 23  1  6
 19 24  1  0
 19 20  1  0
 20 22  1  0
 21 20  1  0
 24 27  1  0
 24 26  1  1
 25 24  1  0
 27 28  2  0
 28 30  1  0
 28 29  1  0
 30 31  1  0
 32 33  1  0
 32 30  2  0
 34 32  1  0
 35 34  1  0
 36 34  2  0
 36 27  1  0
 37 36  1  0
M  END
$$$$
