-61.56395947
     RDKit          3D

 37 37  0  0  1  0  0  0  0  0999 V2000
   -0.5355   -1.2330    1.8662 O   0  0  0  0  0  0  0  0  0  0  0  0
   -0.7338   -2.3419    1.4478 C   0  0  0  0  0  0  0  0  0  0  0  0
   -0.2820   -3.4421    2.0518 O   0  0  0  0  0  0  0  0  0  0  0  0
    0.1945   -3.2212    2.8683 H   0  0  0  0  0  0  0  0  0  0  0  0
   -1.5155   -2.6748    0.1897 C   0  0  2  0  0  0  0  0  0  0  0  0
   -2.4494   -3.1581    0.4992 H   0  0  0  0  0  0  0  0  0  0  0  0
   -0.9387   -3.3722   -0.4218 H   0  0  0  0  0  0  0  0  0  0  0  0
   -1.8491   -1.4901   -0.5516 N   0  0  0  0  0  0  0  0  0  0  0  0
   -1.0904   -0.9754   -0.9978 H   0  0  0  0  0  0  0  0  0  0  0  0
   -2.9867   -0.8125   -0.2822 C   0  0  0  0  0  0  0  0  0  0  0  0
   -3.9056   -1.2552    0.3718 O   0  0  0  0  0  0  0  0  0  0  0  0
   -2.9859    0.5924   -0.9006 C   0  0  2  0  0  0  0  0  0  0  0  0
   -3.9798    1.0302   -0.8139 H   0  0  0  0  0  0  0  0  0  0  0  0
   -2.6917    0.5265   -1.9522 H   0  0  0  0  0  0  0  0  0  0  0  0
   -2.0312    1.4275   -0.2036 N   0  0  0  0  0  0  0  0  0  0  0  0
   -2.3352    1.9940    0.5760 H   0  0  0  0  0  0  0  0  0  0  0  0
   -0.7086    1.3500   -0.4125 C   0  0  0  0  0  0  0  0  0  0  0  0
   -0.2129    0.6471   -1.2804 O   0  0  0  0  0  0  0  0  0  0  0  0
    0.1238    2.2333    0.5158 C   0  0  1  0  0  0  0  0  0  0  0  0
   -0.7094    2.7255    1.6052 N   0  0  0  0  0  0  0  0  0  0  0  0
   -0.2333    3.4680    2.1055 H   0  0  0  0  0  0  0  0  0  0  0  0
   -0.8690    1.9695    2.2666 H   0  0  0  0  0  0  0  0  0  0  0  0
    0.4558    3.0936   -0.0775 H   0  0  0  0  0  0  0  0  0  0  0  0
    1.3560    1.4485    1.0209 C   0  0  2  0  0  0  0  0  0  0  0  0
    0.9933    0.5765    1.5699 H   0  0  0  0  0  0  0  0  0  0  0  0
    1.9007    2.0960    1.7166 H   0  0  0  0  0  0  0  0  0  0  0  0
    2.2793    1.0091   -0.0776 C   0  0  0  0  0  0  0  0  0  0  0  0
    2.4443   -0.3381   -0.3679 C   0  0  0  0  0  0  0  0  0  0  0  0
    1.8927   -1.0733    0.2006 H   0  0  0  0  0  0  0  0  0  0  0  0
    3.2950   -0.7438   -1.3796 C   0  0  0  0  0  0  0  0  0  0  0  0
    3.4094   -1.7960   -1.5977 H   0  0  0  0  0  0  0  0  0  0  0  0
    3.9978    0.1954   -2.1140 C   0  0  0  0  0  0  0  0  0  0  0  0
    4.6608   -0.1197   -2.9065 H   0  0  0  0  0  0  0  0  0  0  0  0
    3.8463    1.5411   -1.8280 C   0  0  0  0  0  0  0  0  0  0  0  0
    4.3936    2.2798   -2.3959 H   0  0  0  0  0  0  0  0  0  0  0  0
    2.9951    1.9437   -0.8154 C   0  0  0  0  0  0  0  0  0  0  0  0
    2.8870    2.9970   -0.5952 H   0  0  0  0  0  0  0  0  0  0  0  0
  2  1  2  0
  2  3  1  0
  3  4  1  0
  5  6  1  1
  5  2  1  0
  7  5  1  0
  8 10  1  0
  8  5  1  0
  9  8  1  0
 10 11  2  0
 12 13  1  6
 12 10  1  0
 12 15  1  0
 14 12  1  0
 15 16  1  0
 17 15  1  0
 17 19  1  0
 18 17  2  0
 19 23  1  6
 19 24  1  0
 19 20  1  0
 20 21  1  0
 20 22  1  0
 24 25  1  1
 24 26  1  0
 27 24  1  0
 28 27  1  0
 28 29  1  0
 30 28  2  0
 31 30  1  0
 32 34  2  0
 32 30  1  0
 33 32  1  0
 34 36  1  0
 35 34  1  0
 36 37  1  0
 36 27  2  0
M  END
$$$$
