-61.56392030
     RDKit          3D

 37 37  0  0  1  0  0  0  0  0999 V2000
    0.8963   -3.2926   -0.0617 O   0  0  0  0  0  0  0  0  0  0  0  0
    0.0360   -2.4558   -0.0677 C   0  0  0  0  0  0  0  0  0  0  0  0
    0.1314   -1.3080   -0.7387 O   0  0  0  0  0  0  0  0  0  0  0  0
    1.0093   -1.2276   -1.1566 H   0  0  0  0  0  0  0  0  0  0  0  0
   -1.2839   -2.5767    0.6771 C   0  0  2  0  0  0  0  0  0  0  0  0
   -1.1110   -3.1347    1.6017 H   0  0  0  0  0  0  0  0  0  0  0  0
   -1.9827   -3.1422    0.0491 H   0  0  0  0  0  0  0  0  0  0  0  0
   -1.8824   -1.2961    0.9426 N   0  0  0  0  0  0  0  0  0  0  0  0
   -1.3171   -0.6069    1.4324 H   0  0  0  0  0  0  0  0  0  0  0  0
   -2.9393   -0.8506    0.2347 C   0  0  0  0  0  0  0  0  0  0  0  0
   -3.6106   -1.5364   -0.5044 O   0  0  0  0  0  0  0  0  0  0  0  0
   -3.2058    0.6456    0.4680 C   0  0  2  0  0  0  0  0  0  0  0  0
   -3.1761    0.8580    1.5404 H   0  0  0  0  0  0  0  0  0  0  0  0
   -4.1810    0.9085    0.0601 H   0  0  0  0  0  0  0  0  0  0  0  0
   -2.1821    1.4305   -0.1919 N   0  0  0  0  0  0  0  0  0  0  0  0
   -2.3761    1.8019   -1.1076 H   0  0  0  0  0  0  0  0  0  0  0  0
   -0.9551    1.6083    0.3212 C   0  0  0  0  0  0  0  0  0  0  0  0
   -0.6192    1.1791    1.4117 O   0  0  0  0  0  0  0  0  0  0  0  0
   -0.0404    2.4237   -0.5955 C   0  0  1  0  0  0  0  0  0  0  0  0
   -0.7088    3.6888   -0.8658 N   0  0  0  0  0  0  0  0  0  0  0  0
   -0.1612    4.2490   -1.5106 H   0  0  0  0  0  0  0  0  0  0  0  0
   -0.8099    4.2211   -0.0074 H   0  0  0  0  0  0  0  0  0  0  0  0
    0.0264    1.8831   -1.5492 H   0  0  0  0  0  0  0  0  0  0  0  0
    1.3748    2.5448    0.0066 C   0  0  2  0  0  0  0  0  0  0  0  0
    1.2904    2.8674    1.0456 H   0  0  0  0  0  0  0  0  0  0  0  0
    1.9242    3.3053   -0.5565 H   0  0  0  0  0  0  0  0  0  0  0  0
    2.1026    1.2334   -0.0685 C   0  0  0  0  0  0  0  0  0  0  0  0
    2.3087    0.4584    1.0650 C   0  0  0  0  0  0  0  0  0  0  0  0
    1.9530    0.8132    2.0197 H   0  0  0  0  0  0  0  0  0  0  0  0
    2.9513   -0.7646    0.9764 C   0  0  0  0  0  0  0  0  0  0  0  0
    3.1052   -1.3576    1.8652 H   0  0  0  0  0  0  0  0  0  0  0  0
    3.3942   -1.2339   -0.2489 C   0  0  0  0  0  0  0  0  0  0  0  0
    3.8872   -2.1911   -0.3180 H   0  0  0  0  0  0  0  0  0  0  0  0
    3.1933   -0.4677   -1.3873 C   0  0  0  0  0  0  0  0  0  0  0  0
    3.5438   -0.8210   -2.3467 H   0  0  0  0  0  0  0  0  0  0  0  0
    2.5561    0.7597   -1.2951 C   0  0  0  0  0  0  0  0  0  0  0  0
    2.4178    1.3582   -2.1853 H   0  0  0  0  0  0  0  0  0  0  0  0
  2  1  2  0
  2  5  1  0
  3  2  1  0
  4  3  1  0
  5  8  1  0
  5  6  1  1
  7  5  1  0
  8  9  1  0
 10 12  1  0
 10  8  1  0
 11 10  2  0
 12 13  1  1
 14 12  1  0
 15 17  1  0
 15 12  1  0
 16 15  1  0
 17 18  2  0
 19 23  1  6
 19 24  1  0
 19 17  1  0
 20 19  1  0
 20 22  1  0
 21 20  1  0
 24 25  1  1
 26 24  1  0
 27 24  1  0
 27 28  2  0
 28 29  1  0
 30 28  1  0
 30 31  1  0
 32 30  2  0
 33 32  1  0
 34 36  2  0
 34 32  1  0
 35 34  1  0
 36 27  1  0
 37 36  1  0
M  END
$$$$
