-61.56359138
     RDKit          3D

 37 37  0  0  1  0  0  0  0  0999 V2000
   -0.2603   -1.4048   -1.5070 O   0  0  0  0  0  0  0  0  0  0  0  0
   -0.0466   -2.4004   -0.8655 C   0  0  0  0  0  0  0  0  0  0  0  0
    0.6514   -3.4346   -1.3190 O   0  0  0  0  0  0  0  0  0  0  0  0
    0.9542   -3.2779   -2.2283 H   0  0  0  0  0  0  0  0  0  0  0  0
   -0.5584   -2.6125    0.5501 C   0  0  2  0  0  0  0  0  0  0  0  0
    0.2475   -2.9719    1.1908 H   0  0  0  0  0  0  0  0  0  0  0  0
   -1.3589   -3.3593    0.5216 H   0  0  0  0  0  0  0  0  0  0  0  0
   -1.1191   -1.3815    1.0387 N   0  0  0  0  0  0  0  0  0  0  0  0
   -0.4669   -0.6101    1.1151 H   0  0  0  0  0  0  0  0  0  0  0  0
   -2.4166   -1.0835    0.7536 C   0  0  0  0  0  0  0  0  0  0  0  0
   -3.2543   -1.9243    0.5225 O   0  0  0  0  0  0  0  0  0  0  0  0
   -2.6965    0.4133    0.7344 C   0  0  2  0  0  0  0  0  0  0  0  0
   -2.5768    0.8571    1.7277 H   0  0  0  0  0  0  0  0  0  0  0  0
   -3.7230    0.5733    0.3899 H   0  0  0  0  0  0  0  0  0  0  0  0
   -1.7476    1.0635   -0.1456 N   0  0  0  0  0  0  0  0  0  0  0  0
   -1.5458    0.5968   -1.0185 H   0  0  0  0  0  0  0  0  0  0  0  0
   -0.9793    2.0989    0.2563 C   0  0  0  0  0  0  0  0  0  0  0  0
   -1.0898    2.6150    1.3522 O   0  0  0  0  0  0  0  0  0  0  0  0
   -0.0036    2.6287   -0.8000 C   0  0  1  0  0  0  0  0  0  0  0  0
   -0.3215    4.0021   -1.1594 N   0  0  0  0  0  0  0  0  0  0  0  0
   -0.3234    4.5721   -0.3182 H   0  0  0  0  0  0  0  0  0  0  0  0
   -1.2493    4.0564   -1.5672 H   0  0  0  0  0  0  0  0  0  0  0  0
   -0.0557    2.0164   -1.7068 H   0  0  0  0  0  0  0  0  0  0  0  0
    1.4228    2.5836   -0.2248 C   0  0  2  0  0  0  0  0  0  0  0  0
    1.4201    3.1325    0.7189 H   0  0  0  0  0  0  0  0  0  0  0  0
    2.0815    3.0947   -0.9277 H   0  0  0  0  0  0  0  0  0  0  0  0
    1.8780    1.1723   -0.0017 C   0  0  0  0  0  0  0  0  0  0  0  0
    1.7020    0.5590    1.2334 C   0  0  0  0  0  0  0  0  0  0  0  0
    1.2454    1.1145    2.0407 H   0  0  0  0  0  0  0  0  0  0  0  0
    2.1245   -0.7437    1.4412 C   0  0  0  0  0  0  0  0  0  0  0  0
    1.9952   -1.2013    2.4119 H   0  0  0  0  0  0  0  0  0  0  0  0
    2.7221   -1.4531    0.4127 C   0  0  0  0  0  0  0  0  0  0  0  0
    3.0598   -2.4665    0.5749 H   0  0  0  0  0  0  0  0  0  0  0  0
    2.8904   -0.8535   -0.8240 C   0  0  0  0  0  0  0  0  0  0  0  0
    3.3606   -1.4002   -1.6290 H   0  0  0  0  0  0  0  0  0  0  0  0
    2.4688    0.4477   -1.0294 C   0  0  0  0  0  0  0  0  0  0  0  0
    2.6080    0.9133   -1.9941 H   0  0  0  0  0  0  0  0  0  0  0  0
  1  2  2  0
  2  5  1  0
  3  2  1  0
  4  3  1  0
  5  8  1  0
  5  6  1  1
  7  5  1  0
  8  9  1  0
 10  8  1  0
 11 10  2  0
 12 10  1  0
 12 13  1  1
 14 12  1  0
 15 17  1  0
 15 12  1  0
 16 15  1  0
 17 18  2  0
 19 23  1  6
 19 24  1  0
 19 17  1  0
 20 19  1  0
 20 21  1  0
 22 20  1  0
 24 27  1  0
 24 25  1  1
 26 24  1  0
 27 28  2  0
 28 30  1  0
 28 29  1  0
 30 31  1  0
 32 33  1  0
 32 30  2  0
 34 32  1  0
 35 34  1  0
 36 34  2  0
 36 27  1  0
 37 36  1  0
M  END
$$$$
