-61.56348828
     RDKit          3D

 37 37  0  0  1  0  0  0  0  0999 V2000
   -1.4085   -3.4661    2.5843 O   0  0  0  0  0  0  0  0  0  0  0  0
   -1.3297   -2.5584    1.8043 C   0  0  0  0  0  0  0  0  0  0  0  0
   -0.4776   -1.5399    1.9632 O   0  0  0  0  0  0  0  0  0  0  0  0
    0.0361   -1.6599    2.7784 H   0  0  0  0  0  0  0  0  0  0  0  0
   -2.1655   -2.4412    0.5460 C   0  0  2  0  0  0  0  0  0  0  0  0
   -3.1897   -2.7400    0.7968 H   0  0  0  0  0  0  0  0  0  0  0  0
   -1.7740   -3.1553   -0.1901 H   0  0  0  0  0  0  0  0  0  0  0  0
   -2.1372   -1.1418   -0.0679 N   0  0  0  0  0  0  0  0  0  0  0  0
   -2.3686   -0.3243    0.4912 H   0  0  0  0  0  0  0  0  0  0  0  0
   -1.6522   -0.9560   -1.3103 C   0  0  0  0  0  0  0  0  0  0  0  0
   -1.2356   -1.8458   -2.0205 O   0  0  0  0  0  0  0  0  0  0  0  0
   -1.7106    0.5127   -1.7573 C   0  0  2  0  0  0  0  0  0  0  0  0
   -2.7071    0.9082   -1.5394 H   0  0  0  0  0  0  0  0  0  0  0  0
   -1.5177    0.5610   -2.8288 H   0  0  0  0  0  0  0  0  0  0  0  0
   -0.7363    1.3366   -1.0694 N   0  0  0  0  0  0  0  0  0  0  0  0
    0.1774    1.4158   -1.4882 H   0  0  0  0  0  0  0  0  0  0  0  0
   -0.8975    1.7331    0.2068 C   0  0  0  0  0  0  0  0  0  0  0  0
   -1.9086    1.5029    0.8536 O   0  0  0  0  0  0  0  0  0  0  0  0
    0.2777    2.5134    0.8005 C   0  0  1  0  0  0  0  0  0  0  0  0
   -0.1055    3.2750    1.9726 N   0  0  0  0  0  0  0  0  0  0  0  0
   -0.7519    4.0138    1.7154 H   0  0  0  0  0  0  0  0  0  0  0  0
   -0.6031    2.6624    2.6135 H   0  0  0  0  0  0  0  0  0  0  0  0
    0.6750    3.2074    0.0513 H   0  0  0  0  0  0  0  0  0  0  0  0
    1.3818    1.5066    1.2005 C   0  0  2  0  0  0  0  0  0  0  0  0
    0.9313    0.7319    1.8231 H   0  0  0  0  0  0  0  0  0  0  0  0
    2.1072    2.0577    1.8013 H   0  0  0  0  0  0  0  0  0  0  0  0
    2.0486    0.8925    0.0048 C   0  0  0  0  0  0  0  0  0  0  0  0
    2.9780    1.6203   -0.7313 C   0  0  0  0  0  0  0  0  0  0  0  0
    3.2470    2.6167   -0.4099 H   0  0  0  0  0  0  0  0  0  0  0  0
    3.5614    1.0771   -1.8622 C   0  0  0  0  0  0  0  0  0  0  0  0
    4.2847    1.6519   -2.4219 H   0  0  0  0  0  0  0  0  0  0  0  0
    3.2195   -0.1999   -2.2765 C   0  0  0  0  0  0  0  0  0  0  0  0
    3.6715   -0.6208   -3.1620 H   0  0  0  0  0  0  0  0  0  0  0  0
    2.3001   -0.9357   -1.5482 C   0  0  0  0  0  0  0  0  0  0  0  0
    2.0224   -1.9289   -1.8658 H   0  0  0  0  0  0  0  0  0  0  0  0
    1.7227   -0.3931   -0.4134 C   0  0  0  0  0  0  0  0  0  0  0  0
    1.0047   -0.9688    0.1509 H   0  0  0  0  0  0  0  0  0  0  0  0
  2  3  1  0
  2  1  2  0
  3  4  1  0
  5  6  1  1
  5  2  1  0
  7  5  1  0
  8  9  1  0
  8  5  1  0
 10  8  1  0
 11 10  2  0
 12 13  1  6
 12 10  1  0
 12 15  1  0
 14 12  1  0
 15 17  1  0
 16 15  1  0
 17 19  1  0
 17 18  2  0
 19 23  1  6
 19 24  1  0
 19 20  1  0
 20 22  1  0
 21 20  1  0
 24 26  1  1
 24 25  1  0
 27 24  1  0
 28 29  1  0
 28 27  2  0
 30 28  1  0
 31 30  1  0
 32 30  2  0
 32 34  1  0
 33 32  1  0
 34 36  2  0
 35 34  1  0
 36 27  1  0
 36 37  1  0
M  END
$$$$
