-61.56336998
     RDKit          3D

 37 37  0  0  1  0  0  0  0  0999 V2000
   -1.4751   -2.9587   -2.0813 O   0  0  0  0  0  0  0  0  0  0  0  0
   -0.8343   -3.2547   -1.1129 C   0  0  0  0  0  0  0  0  0  0  0  0
   -0.1478   -4.3987   -1.0092 O   0  0  0  0  0  0  0  0  0  0  0  0
   -0.2680   -4.9399   -1.8060 H   0  0  0  0  0  0  0  0  0  0  0  0
   -0.6755   -2.4043    0.1296 C   0  0  2  0  0  0  0  0  0  0  0  0
    0.3937   -2.2846    0.3405 H   0  0  0  0  0  0  0  0  0  0  0  0
   -1.1387   -2.9206    0.9780 H   0  0  0  0  0  0  0  0  0  0  0  0
   -1.3259   -1.1314   -0.0137 N   0  0  0  0  0  0  0  0  0  0  0  0
   -1.1339   -0.5784   -0.8432 H   0  0  0  0  0  0  0  0  0  0  0  0
   -2.2886   -0.7288    0.8355 C   0  0  0  0  0  0  0  0  0  0  0  0
   -2.6453   -1.3576    1.8090 O   0  0  0  0  0  0  0  0  0  0  0  0
   -2.8588    0.6483    0.4686 C   0  0  2  0  0  0  0  0  0  0  0  0
   -3.6852    0.8814    1.1400 H   0  0  0  0  0  0  0  0  0  0  0  0
   -3.2142    0.6157   -0.5659 H   0  0  0  0  0  0  0  0  0  0  0  0
   -1.8514    1.6799    0.5716 N   0  0  0  0  0  0  0  0  0  0  0  0
   -1.7310    2.1799    1.4417 H   0  0  0  0  0  0  0  0  0  0  0  0
   -0.9519    1.9221   -0.3925 C   0  0  0  0  0  0  0  0  0  0  0  0
   -0.9286    1.3270   -1.4564 O   0  0  0  0  0  0  0  0  0  0  0  0
    0.0248    3.0505   -0.0470 C   0  0  1  0  0  0  0  0  0  0  0  0
    0.0842    3.2174    1.3960 N   0  0  0  0  0  0  0  0  0  0  0  0
    0.5972    2.4428    1.8094 H   0  0  0  0  0  0  0  0  0  0  0  0
    0.5776    4.0712    1.6323 H   0  0  0  0  0  0  0  0  0  0  0  0
   -0.4060    3.9692   -0.4672 H   0  0  0  0  0  0  0  0  0  0  0  0
    1.3880    2.8019   -0.7385 C   0  0  2  0  0  0  0  0  0  0  0  0
    2.0196    3.6809   -0.5864 H   0  0  0  0  0  0  0  0  0  0  0  0
    1.1983    2.6831   -1.8052 H   0  0  0  0  0  0  0  0  0  0  0  0
    2.0687    1.5766   -0.2004 C   0  0  0  0  0  0  0  0  0  0  0  0
    2.8365    1.6427    0.9575 C   0  0  0  0  0  0  0  0  0  0  0  0
    2.9909    2.5948    1.4484 H   0  0  0  0  0  0  0  0  0  0  0  0
    3.4319    0.5065    1.4783 C   0  0  0  0  0  0  0  0  0  0  0  0
    4.0222    0.5750    2.3805 H   0  0  0  0  0  0  0  0  0  0  0  0
    3.2808   -0.7106    0.8380 C   0  0  0  0  0  0  0  0  0  0  0  0
    3.7520   -1.5960    1.2384 H   0  0  0  0  0  0  0  0  0  0  0  0
    2.5332   -0.7834   -0.3260 C   0  0  0  0  0  0  0  0  0  0  0  0
    2.4364   -1.7258   -0.8465 H   0  0  0  0  0  0  0  0  0  0  0  0
    1.9248    0.3492   -0.8367 C   0  0  0  0  0  0  0  0  0  0  0  0
    1.3349    0.2889   -1.7385 H   0  0  0  0  0  0  0  0  0  0  0  0
  1  2  2  0
  2  3  1  0
  2  5  1  0
  4  3  1  0
  5  6  1  1
  5  7  1  0
  8  5  1  0
  8 10  1  0
  9  8  1  0
 10 11  2  0
 12 15  1  0
 12 10  1  0
 12 13  1  1
 14 12  1  0
 15 16  1  0
 17 19  1  0
 17 15  1  0
 18 17  2  0
 19 23  1  6
 19 20  1  0
 20 22  1  0
 20 21  1  0
 24 25  1  6
 24 27  1  0
 24 19  1  0
 26 24  1  0
 27 28  2  0
 28 29  1  0
 28 30  1  0
 30 31  1  0
 32 33  1  0
 32 30  2  0
 34 32  1  0
 35 34  1  0
 36 34  2  0
 36 27  1  0
 37 36  1  0
M  END
$$$$
