-61.56326797
     RDKit          3D

 37 37  0  0  1  0  0  0  0  0999 V2000
   -1.6681   -4.1692   -2.2481 O   0  0  0  0  0  0  0  0  0  0  0  0
   -1.7809   -3.2428   -1.4931 C   0  0  0  0  0  0  0  0  0  0  0  0
   -2.9587   -2.8008   -1.0498 O   0  0  0  0  0  0  0  0  0  0  0  0
   -3.6809   -3.3373   -1.4132 H   0  0  0  0  0  0  0  0  0  0  0  0
   -0.6146   -2.4486   -0.9334 C   0  0  2  0  0  0  0  0  0  0  0  0
    0.0926   -2.2619   -1.7478 H   0  0  0  0  0  0  0  0  0  0  0  0
   -0.1187   -3.0696   -0.1771 H   0  0  0  0  0  0  0  0  0  0  0  0
   -1.0168   -1.2317   -0.2870 N   0  0  0  0  0  0  0  0  0  0  0  0
   -1.4612   -0.4997   -0.8363 H   0  0  0  0  0  0  0  0  0  0  0  0
   -0.8921   -1.0575    1.0395 C   0  0  0  0  0  0  0  0  0  0  0  0
   -0.3765   -1.8570    1.7910 O   0  0  0  0  0  0  0  0  0  0  0  0
   -1.4899    0.2741    1.5213 C   0  0  2  0  0  0  0  0  0  0  0  0
   -1.4622    0.2914    2.6106 H   0  0  0  0  0  0  0  0  0  0  0  0
   -2.5283    0.3214    1.1763 H   0  0  0  0  0  0  0  0  0  0  0  0
   -0.7842    1.4303    1.0173 N   0  0  0  0  0  0  0  0  0  0  0  0
   -0.0820    1.8699    1.5957 H   0  0  0  0  0  0  0  0  0  0  0  0
   -0.9013    1.8897   -0.2355 C   0  0  0  0  0  0  0  0  0  0  0  0
   -1.6190    1.3849   -1.0850 O   0  0  0  0  0  0  0  0  0  0  0  0
   -0.0349    3.1136   -0.5203 C   0  0  1  0  0  0  0  0  0  0  0  0
    0.1712    3.8712    0.7059 N   0  0  0  0  0  0  0  0  0  0  0  0
   -0.7132    4.2302    1.0502 H   0  0  0  0  0  0  0  0  0  0  0  0
    0.7767    4.6655    0.5264 H   0  0  0  0  0  0  0  0  0  0  0  0
   -0.5397    3.6944   -1.3115 H   0  0  0  0  0  0  0  0  0  0  0  0
    1.3196    2.6246   -1.0823 C   0  0  2  0  0  0  0  0  0  0  0  0
    1.9990    3.4797   -1.1255 H   0  0  0  0  0  0  0  0  0  0  0  0
    1.1543    2.2637   -2.0983 H   0  0  0  0  0  0  0  0  0  0  0  0
    1.9176    1.5275   -0.2462 C   0  0  0  0  0  0  0  0  0  0  0  0
    2.4407    1.7972    1.0134 C   0  0  0  0  0  0  0  0  0  0  0  0
    2.4494    2.8134    1.3783 H   0  0  0  0  0  0  0  0  0  0  0  0
    2.9372    0.7743    1.8020 C   0  0  0  0  0  0  0  0  0  0  0  0
    3.3335    0.9969    2.7821 H   0  0  0  0  0  0  0  0  0  0  0  0
    2.9297   -0.5298    1.3378 C   0  0  0  0  0  0  0  0  0  0  0  0
    3.3125   -1.3285    1.9540 H   0  0  0  0  0  0  0  0  0  0  0  0
    2.4270   -0.8049    0.0788 C   0  0  0  0  0  0  0  0  0  0  0  0
    2.4289   -1.8190   -0.2913 H   0  0  0  0  0  0  0  0  0  0  0  0
    1.9197    0.2169   -0.7045 C   0  0  0  0  0  0  0  0  0  0  0  0
    1.5219   -0.0010   -1.6858 H   0  0  0  0  0  0  0  0  0  0  0  0
  1  2  2  0
  2  3  1  0
  2  5  1  0
  4  3  1  0
  5  8  1  0
  5  7  1  1
  6  5  1  0
  8 10  1  0
  9  8  1  0
 10 12  1  0
 10 11  2  0
 12 13  1  1
 14 12  1  0
 15 12  1  0
 15 16  1  0
 17 15  1  0
 18 17  2  0
 19 23  1  6
 19 17  1  0
 19 20  1  0
 20 21  1  0
 22 20  1  0
 24 19  1  0
 24 27  1  0
 24 25  1  6
 26 24  1  0
 27 28  1  0
 28 29  1  0
 28 30  2  0
 30 31  1  0
 32 30  1  0
 32 33  1  0
 34 32  2  0
 35 34  1  0
 36 27  2  0
 36 34  1  0
 37 36  1  0
M  END
$$$$
