-61.56301445
     RDKit          3D

 37 37  0  0  1  0  0  0  0  0999 V2000
   -1.5860   -1.3103    2.1875 O   0  0  0  0  0  0  0  0  0  0  0  0
   -2.1396   -2.3465    1.9345 C   0  0  0  0  0  0  0  0  0  0  0  0
   -2.5041   -3.2289    2.8644 O   0  0  0  0  0  0  0  0  0  0  0  0
   -2.2778   -2.9106    3.7533 H   0  0  0  0  0  0  0  0  0  0  0  0
   -2.5067   -2.8140    0.5370 C   0  0  2  0  0  0  0  0  0  0  0  0
   -3.5989   -2.8173    0.4518 H   0  0  0  0  0  0  0  0  0  0  0  0
   -2.1349   -3.8304    0.3863 H   0  0  0  0  0  0  0  0  0  0  0  0
   -1.9830   -1.9154   -0.4560 N   0  0  0  0  0  0  0  0  0  0  0  0
   -0.9721   -1.7867   -0.4758 H   0  0  0  0  0  0  0  0  0  0  0  0
   -2.7375   -0.8947   -0.9220 C   0  0  0  0  0  0  0  0  0  0  0  0
   -3.9406   -0.8217   -0.7989 O   0  0  0  0  0  0  0  0  0  0  0  0
   -1.8921    0.1857   -1.6078 C   0  0  2  0  0  0  0  0  0  0  0  0
   -2.5358    0.8544   -2.1790 H   0  0  0  0  0  0  0  0  0  0  0  0
   -1.1475   -0.2762   -2.2607 H   0  0  0  0  0  0  0  0  0  0  0  0
   -1.1925    0.9477   -0.5882 N   0  0  0  0  0  0  0  0  0  0  0  0
   -1.6965    1.7094   -0.1632 H   0  0  0  0  0  0  0  0  0  0  0  0
   -0.0887    0.4731    0.0266 C   0  0  0  0  0  0  0  0  0  0  0  0
    0.4552   -0.5671   -0.3088 O   0  0  0  0  0  0  0  0  0  0  0  0
    0.4537    1.3433    1.1612 C   0  0  1  0  0  0  0  0  0  0  0  0
    1.2919    0.5787    2.0617 N   0  0  0  0  0  0  0  0  0  0  0  0
    1.9959    0.0914    1.5124 H   0  0  0  0  0  0  0  0  0  0  0  0
    0.7241   -0.1332    2.5114 H   0  0  0  0  0  0  0  0  0  0  0  0
   -0.3876    1.7375    1.7429 H   0  0  0  0  0  0  0  0  0  0  0  0
    1.2487    2.5282    0.5654 C   0  0  2  0  0  0  0  0  0  0  0  0
    1.7331    3.0431    1.3957 H   0  0  0  0  0  0  0  0  0  0  0  0
    0.5517    3.2133    0.0789 H   0  0  0  0  0  0  0  0  0  0  0  0
    2.2753    2.0523   -0.4225 C   0  0  0  0  0  0  0  0  0  0  0  0
    3.5439    1.6779    0.0015 C   0  0  0  0  0  0  0  0  0  0  0  0
    3.8009    1.7691    1.0469 H   0  0  0  0  0  0  0  0  0  0  0  0
    4.4727    1.1910   -0.9011 C   0  0  0  0  0  0  0  0  0  0  0  0
    5.4551    0.9008   -0.5575 H   0  0  0  0  0  0  0  0  0  0  0  0
    4.1450    1.0742   -2.2408 C   0  0  0  0  0  0  0  0  0  0  0  0
    4.8684    0.6916   -2.9457 H   0  0  0  0  0  0  0  0  0  0  0  0
    2.8854    1.4514   -2.6736 C   0  0  0  0  0  0  0  0  0  0  0  0
    2.6241    1.3653   -3.7184 H   0  0  0  0  0  0  0  0  0  0  0  0
    1.9579    1.9373   -1.7700 C   0  0  0  0  0  0  0  0  0  0  0  0
    0.9760    2.2312   -2.1151 H   0  0  0  0  0  0  0  0  0  0  0  0
  2  1  2  0
  2  3  1  0
  3  4  1  0
  5  2  1  0
  5  6  1  1
  7  5  1  0
  8  5  1  0
  9  8  1  0
 10 11  2  0
 10  8  1  0
 12 10  1  0
 12 15  1  0
 12 13  1  6
 14 12  1  0
 15 16  1  0
 15 17  1  0
 17 19  1  0
 18 17  2  0
 19 23  1  1
 19 20  1  0
 20 22  1  0
 21 20  1  0
 24 19  1  0
 24 25  1  1
 26 24  1  0
 27 28  1  0
 27 24  1  0
 28 29  1  0
 30 31  1  0
 30 28  2  0
 32 30  1  0
 33 32  1  0
 34 32  2  0
 34 36  1  0
 35 34  1  0
 36 27  2  0
 37 36  1  0
M  END
$$$$
