-61.56600985
     RDKit          3D

 37 37  0  0  1  0  0  0  0  0999 V2000
   -1.9559   -0.8655    2.1722 O   0  0  0  0  0  0  0  0  0  0  0  0
   -3.0369   -1.3044    1.8812 C   0  0  0  0  0  0  0  0  0  0  0  0
   -3.9536   -1.6460    2.7857 O   0  0  0  0  0  0  0  0  0  0  0  0
   -3.6214   -1.5095    3.6878 H   0  0  0  0  0  0  0  0  0  0  0  0
   -3.5267   -1.5432    0.4636 C   0  0  2  0  0  0  0  0  0  0  0  0
   -4.5169   -1.0999    0.3409 H   0  0  0  0  0  0  0  0  0  0  0  0
   -3.5977   -2.6265    0.3140 H   0  0  0  0  0  0  0  0  0  0  0  0
   -2.5982   -1.0177   -0.4995 N   0  0  0  0  0  0  0  0  0  0  0  0
   -2.4870   -0.0060   -0.5404 H   0  0  0  0  0  0  0  0  0  0  0  0
   -1.5506   -1.7705   -0.9105 C   0  0  0  0  0  0  0  0  0  0  0  0
   -1.4853   -2.9726   -0.7802 O   0  0  0  0  0  0  0  0  0  0  0  0
   -0.4422   -0.9195   -1.5416 C   0  0  2  0  0  0  0  0  0  0  0  0
   -0.8730   -0.2348   -2.2771 H   0  0  0  0  0  0  0  0  0  0  0  0
    0.3002   -1.5622   -2.0136 H   0  0  0  0  0  0  0  0  0  0  0  0
    0.1920   -0.1392   -0.5021 N   0  0  0  0  0  0  0  0  0  0  0  0
    0.9573   -0.5418    0.0213 H   0  0  0  0  0  0  0  0  0  0  0  0
   -0.3370    0.9876   -0.0060 C   0  0  0  0  0  0  0  0  0  0  0  0
   -1.3497    1.5136   -0.4448 O   0  0  0  0  0  0  0  0  0  0  0  0
    0.4571    1.5665    1.1574 C   0  0  1  0  0  0  0  0  0  0  0  0
    1.0065    0.4645    1.9339 N   0  0  0  0  0  0  0  0  0  0  0  0
    0.2470   -0.1254    2.2622 H   0  0  0  0  0  0  0  0  0  0  0  0
    1.4964    0.8203    2.7480 H   0  0  0  0  0  0  0  0  0  0  0  0
   -0.2364    2.2048    1.7321 H   0  0  0  0  0  0  0  0  0  0  0  0
    1.5898    2.4679    0.6159 C   0  0  2  0  0  0  0  0  0  0  0  0
    2.1857    2.8107    1.4650 H   0  0  0  0  0  0  0  0  0  0  0  0
    1.1311    3.3355    0.1393 H   0  0  0  0  0  0  0  0  0  0  0  0
    2.4597    1.7402   -0.3672 C   0  0  0  0  0  0  0  0  0  0  0  0
    2.2120    1.8391   -1.7311 C   0  0  0  0  0  0  0  0  0  0  0  0
    1.4088    2.4720   -2.0809 H   0  0  0  0  0  0  0  0  0  0  0  0
    2.9788    1.1329   -2.6401 C   0  0  0  0  0  0  0  0  0  0  0  0
    2.7759    1.2199   -3.6976 H   0  0  0  0  0  0  0  0  0  0  0  0
    4.0049    0.3160   -2.1961 C   0  0  0  0  0  0  0  0  0  0  0  0
    4.6041   -0.2362   -2.9050 H   0  0  0  0  0  0  0  0  0  0  0  0
    4.2614    0.2137   -0.8397 C   0  0  0  0  0  0  0  0  0  0  0  0
    5.0629   -0.4193   -0.4877 H   0  0  0  0  0  0  0  0  0  0  0  0
    3.4941    0.9221    0.0684 C   0  0  0  0  0  0  0  0  0  0  0  0
    3.6958    0.8363    1.1254 H   0  0  0  0  0  0  0  0  0  0  0  0
  2  1  2  0
  2  3  1  0
  3  4  1  0
  5  2  1  0
  5  6  1  1
  7  5  1  0
  8  5  1  0
  9  8  1  0
 10 11  2  0
 10  8  1  0
 12 10  1  0
 12 15  1  0
 12 13  1  6
 14 12  1  0
 15 17  1  0
 15 16  1  0
 17 19  1  0
 18 17  2  0
 19 23  1  1
 19 20  1  0
 20 21  1  0
 20 22  1  0
 24 19  1  0
 24 25  1  1
 26 24  1  0
 27 36  1  0
 27 24  1  0
 28 27  2  0
 29 28  1  0
 30 32  2  0
 30 28  1  0
 31 30  1  0
 32 34  1  0
 33 32  1  0
 34 35  1  0
 34 36  2  0
 36 37  1  0
M  END
$$$$
