-61.56209054
     RDKit          3D

 37 37  0  0  1  0  0  0  0  0999 V2000
    0.8797   -3.3403   -0.0196 O   0  0  0  0  0  0  0  0  0  0  0  0
    0.0341   -2.4914   -0.0772 C   0  0  0  0  0  0  0  0  0  0  0  0
    0.1700   -1.3607   -0.7709 O   0  0  0  0  0  0  0  0  0  0  0  0
    1.0608   -1.3071   -1.1642 H   0  0  0  0  0  0  0  0  0  0  0  0
   -1.3162   -2.5770    0.6182 C   0  0  2  0  0  0  0  0  0  0  0  0
   -1.1803   -3.0496    1.5940 H   0  0  0  0  0  0  0  0  0  0  0  0
   -1.9684   -3.2102    0.0050 H   0  0  0  0  0  0  0  0  0  0  0  0
   -1.9537   -1.2945    0.7440 N   0  0  0  0  0  0  0  0  0  0  0  0
   -1.4944   -0.5891    1.3123 H   0  0  0  0  0  0  0  0  0  0  0  0
   -2.8754   -0.8853   -0.1510 C   0  0  0  0  0  0  0  0  0  0  0  0
   -3.4043   -1.6034   -0.9704 O   0  0  0  0  0  0  0  0  0  0  0  0
   -3.1877    0.6116   -0.0220 C   0  0  2  0  0  0  0  0  0  0  0  0
   -3.3687    0.8596    1.0271 H   0  0  0  0  0  0  0  0  0  0  0  0
   -4.0655    0.8526   -0.6221 H   0  0  0  0  0  0  0  0  0  0  0  0
   -2.0632    1.4038   -0.4826 N   0  0  0  0  0  0  0  0  0  0  0  0
   -1.9958    1.5633   -1.4754 H   0  0  0  0  0  0  0  0  0  0  0  0
   -0.9954    1.6675    0.3026 C   0  0  0  0  0  0  0  0  0  0  0  0
   -0.9342    1.3012    1.4642 O   0  0  0  0  0  0  0  0  0  0  0  0
    0.0389    2.5863   -0.3537 C   0  0  1  0  0  0  0  0  0  0  0  0
   -0.4280    3.9682   -0.3300 N   0  0  0  0  0  0  0  0  0  0  0  0
   -0.5123    4.2859    0.6302 H   0  0  0  0  0  0  0  0  0  0  0  0
   -1.3389    4.0537   -0.7682 H   0  0  0  0  0  0  0  0  0  0  0  0
    0.1632    2.2973   -1.4043 H   0  0  0  0  0  0  0  0  0  0  0  0
    1.3858    2.5029    0.3740 C   0  0  2  0  0  0  0  0  0  0  0  0
    1.2093    2.6616    1.4390 H   0  0  0  0  0  0  0  0  0  0  0  0
    2.0122    3.3133   -0.0037 H   0  0  0  0  0  0  0  0  0  0  0  0
    2.0637    1.1800    0.1634 C   0  0  0  0  0  0  0  0  0  0  0  0
    2.5976    0.8539   -1.0783 C   0  0  0  0  0  0  0  0  0  0  0  0
    2.5331    1.5648   -1.8899 H   0  0  0  0  0  0  0  0  0  0  0  0
    3.2258   -0.3646   -1.2787 C   0  0  0  0  0  0  0  0  0  0  0  0
    3.6414   -0.6025   -2.2477 H   0  0  0  0  0  0  0  0  0  0  0  0
    3.3410   -1.2689   -0.2329 C   0  0  0  0  0  0  0  0  0  0  0  0
    3.8349   -2.2163   -0.3835 H   0  0  0  0  0  0  0  0  0  0  0  0
    2.8127   -0.9503    1.0074 C   0  0  0  0  0  0  0  0  0  0  0  0
    2.8977   -1.6527    1.8226 H   0  0  0  0  0  0  0  0  0  0  0  0
    2.1726    0.2621    1.2002 C   0  0  0  0  0  0  0  0  0  0  0  0
    1.7528    0.5030    2.1653 H   0  0  0  0  0  0  0  0  0  0  0  0
  2  1  2  0
  2  5  1  0
  3  2  1  0
  4  3  1  0
  5  8  1  0
  5  6  1  1
  7  5  1  0
  8  9  1  0
 10 12  1  0
 10  8  1  0
 11 10  2  0
 12 13  1  1
 14 12  1  0
 15 12  1  0
 15 17  1  0
 16 15  1  0
 17 18  2  0
 19 23  1  6
 19 20  1  0
 19 17  1  0
 19 24  1  0
 20 21  1  0
 22 20  1  0
 24 25  1  1
 26 24  1  0
 27 24  1  0
 27 36  2  0
 28 27  1  0
 29 28  1  0
 30 28  2  0
 30 32  1  0
 31 30  1  0
 32 34  2  0
 33 32  1  0
 34 36  1  0
 34 35  1  0
 36 37  1  0
M  END
$$$$
