-61.56208914
     RDKit          3D

 37 37  0  0  1  0  0  0  0  0999 V2000
    0.9119   -3.3284    0.0541 O   0  0  0  0  0  0  0  0  0  0  0  0
    0.0601   -2.4841    0.0391 C   0  0  0  0  0  0  0  0  0  0  0  0
    0.1195   -1.3896   -0.7208 O   0  0  0  0  0  0  0  0  0  0  0  0
    0.9679   -1.3536   -1.2005 H   0  0  0  0  0  0  0  0  0  0  0  0
   -1.2133   -2.5351    0.8697 C   0  0  2  0  0  0  0  0  0  0  0  0
   -0.9743   -2.9428    1.8549 H   0  0  0  0  0  0  0  0  0  0  0  0
   -1.9139   -3.2119    0.3665 H   0  0  0  0  0  0  0  0  0  0  0  0
   -1.8537   -1.2524    0.9770 N   0  0  0  0  0  0  0  0  0  0  0  0
   -1.3518   -0.5089    1.4529 H   0  0  0  0  0  0  0  0  0  0  0  0
   -2.8645   -0.9093    0.1530 C   0  0  0  0  0  0  0  0  0  0  0  0
   -3.4613   -1.6842   -0.5615 O   0  0  0  0  0  0  0  0  0  0  0  0
   -3.1814    0.5907    0.2126 C   0  0  2  0  0  0  0  0  0  0  0  0
   -3.2650    0.9077    1.2553 H   0  0  0  0  0  0  0  0  0  0  0  0
   -4.1146    0.7865   -0.3162 H   0  0  0  0  0  0  0  0  0  0  0  0
   -2.1138    1.3551   -0.4037 N   0  0  0  0  0  0  0  0  0  0  0  0
   -2.1351    1.4374   -1.4080 H   0  0  0  0  0  0  0  0  0  0  0  0
   -0.9839    1.6819    0.2621 C   0  0  0  0  0  0  0  0  0  0  0  0
   -0.8181    1.4054    1.4380 O   0  0  0  0  0  0  0  0  0  0  0  0
   -0.0190    2.5487   -0.5519 C   0  0  1  0  0  0  0  0  0  0  0  0
   -0.5000    3.9246   -0.6091 N   0  0  0  0  0  0  0  0  0  0  0  0
   -0.5087    4.3247    0.3236 H   0  0  0  0  0  0  0  0  0  0  0  0
   -1.4451    3.9665   -0.9754 H   0  0  0  0  0  0  0  0  0  0  0  0
    0.0242    2.1704   -1.5805 H   0  0  0  0  0  0  0  0  0  0  0  0
    1.3834    2.5367    0.0680 C   0  0  2  0  0  0  0  0  0  0  0  0
    1.2924    2.7955    1.1240 H   0  0  0  0  0  0  0  0  0  0  0  0
    1.9697    3.3082   -0.4346 H   0  0  0  0  0  0  0  0  0  0  0  0
    2.0529    1.2001   -0.0707 C   0  0  0  0  0  0  0  0  0  0  0  0
    2.2295    0.3743    1.0320 C   0  0  0  0  0  0  0  0  0  0  0  0
    1.8688    0.6977    1.9969 H   0  0  0  0  0  0  0  0  0  0  0  0
    2.8608   -0.8512    0.9043 C   0  0  0  0  0  0  0  0  0  0  0  0
    2.9985   -1.4810    1.7701 H   0  0  0  0  0  0  0  0  0  0  0  0
    3.3139   -1.2752   -0.3339 C   0  0  0  0  0  0  0  0  0  0  0  0
    3.8010   -2.2328   -0.4334 H   0  0  0  0  0  0  0  0  0  0  0  0
    3.1294   -0.4644   -1.4444 C   0  0  0  0  0  0  0  0  0  0  0  0
    3.4851   -0.7855   -2.4132 H   0  0  0  0  0  0  0  0  0  0  0  0
    2.5090    0.7675   -1.3109 C   0  0  0  0  0  0  0  0  0  0  0  0
    2.3898    1.4055   -2.1752 H   0  0  0  0  0  0  0  0  0  0  0  0
  2  1  2  0
  2  5  1  0
  3  2  1  0
  4  3  1  0
  5  8  1  0
  5  6  1  1
  7  5  1  0
  8  9  1  0
 10 12  1  0
 10  8  1  0
 11 10  2  0
 12 13  1  1
 14 12  1  0
 15 12  1  0
 15 17  1  0
 16 15  1  0
 17 18  2  0
 19 23  1  6
 19 24  1  0
 19 17  1  0
 20 19  1  0
 20 21  1  0
 22 20  1  0
 24 25  1  1
 26 24  1  0
 27 24  1  0
 27 28  2  0
 28 29  1  0
 30 28  1  0
 30 31  1  0
 32 30  2  0
 33 32  1  0
 34 36  2  0
 34 32  1  0
 35 34  1  0
 36 27  1  0
 37 36  1  0
M  END
$$$$
