-61.56587754
     RDKit          3D

 37 37  0  0  1  0  0  0  0  0999 V2000
   -1.0556   -2.4091    0.4962 O   0  0  0  0  0  0  0  0  0  0  0  0
   -1.9858   -2.8875    1.0887 C   0  0  0  0  0  0  0  0  0  0  0  0
   -1.9697   -4.1154    1.6055 O   0  0  0  0  0  0  0  0  0  0  0  0
   -1.1264   -4.5600    1.4216 H   0  0  0  0  0  0  0  0  0  0  0  0
   -3.3111   -2.1885    1.3377 C   0  0  2  0  0  0  0  0  0  0  0  0
   -3.5766   -2.2752    2.3931 H   0  0  0  0  0  0  0  0  0  0  0  0
   -4.0726   -2.6946    0.7335 H   0  0  0  0  0  0  0  0  0  0  0  0
   -3.2557   -0.8121    0.9267 N   0  0  0  0  0  0  0  0  0  0  0  0
   -2.6546   -0.1871    1.4600 H   0  0  0  0  0  0  0  0  0  0  0  0
   -3.5095   -0.4799   -0.3607 C   0  0  0  0  0  0  0  0  0  0  0  0
   -4.0780   -1.2020   -1.1494 O   0  0  0  0  0  0  0  0  0  0  0  0
   -2.9773    0.9136   -0.7160 C   0  0  2  0  0  0  0  0  0  0  0  0
   -3.2773    1.6324    0.0511 H   0  0  0  0  0  0  0  0  0  0  0  0
   -3.3608    1.2177   -1.6898 H   0  0  0  0  0  0  0  0  0  0  0  0
   -1.5312    0.8698   -0.7624 N   0  0  0  0  0  0  0  0  0  0  0  0
   -1.0788    0.5238   -1.5997 H   0  0  0  0  0  0  0  0  0  0  0  0
   -0.7675    0.8619    0.3420 C   0  0  0  0  0  0  0  0  0  0  0  0
   -1.1980    1.0492    1.4699 O   0  0  0  0  0  0  0  0  0  0  0  0
    0.7082    0.6351    0.0428 C   0  0  1  0  0  0  0  0  0  0  0  0
    0.8128   -0.2811   -1.0842 N   0  0  0  0  0  0  0  0  0  0  0  0
    1.7886   -0.4213   -1.3260 H   0  0  0  0  0  0  0  0  0  0  0  0
    0.4214   -1.1815   -0.8220 H   0  0  0  0  0  0  0  0  0  0  0  0
    1.1755    0.2569    0.9674 H   0  0  0  0  0  0  0  0  0  0  0  0
    1.3585    1.9875   -0.3145 C   0  0  2  0  0  0  0  0  0  0  0  0
    1.1224    2.7000    0.4778 H   0  0  0  0  0  0  0  0  0  0  0  0
    0.9253    2.3404   -1.2513 H   0  0  0  0  0  0  0  0  0  0  0  0
    2.8457    1.8346   -0.4496 C   0  0  0  0  0  0  0  0  0  0  0  0
    3.4341    1.6666   -1.6968 C   0  0  0  0  0  0  0  0  0  0  0  0
    2.8165    1.6860   -2.5835 H   0  0  0  0  0  0  0  0  0  0  0  0
    4.8011    1.4805   -1.8118 C   0  0  0  0  0  0  0  0  0  0  0  0
    5.2457    1.3531   -2.7882 H   0  0  0  0  0  0  0  0  0  0  0  0
    5.5968    1.4577   -0.6795 C   0  0  0  0  0  0  0  0  0  0  0  0
    6.6634    1.3132   -0.7686 H   0  0  0  0  0  0  0  0  0  0  0  0
    5.0192    1.6236    0.5683 C   0  0  0  0  0  0  0  0  0  0  0  0
    5.6356    1.6094    1.4554 H   0  0  0  0  0  0  0  0  0  0  0  0
    3.6533    1.8089    0.6815 C   0  0  0  0  0  0  0  0  0  0  0  0
    3.2051    1.9398    1.6562 H   0  0  0  0  0  0  0  0  0  0  0  0
  1  2  2  0
  2  5  1  0
  2  3  1  0
  4  3  1  0
  5  6  1  1
  7  5  1  0
  8  5  1  0
  8  9  1  0
 10  8  1  0
 11 10  2  0
 12 10  1  0
 12 13  1  1
 14 12  1  0
 15 12  1  0
 15 17  1  0
 16 15  1  0
 17 18  2  0
 19 17  1  0
 19 23  1  1
 20 22  1  0
 20 19  1  0
 21 20  1  0
 24 19  1  0
 24 25  1  1
 26 24  1  0
 27 24  1  0
 27 36  2  0
 28 27  1  0
 29 28  1  0
 30 28  2  0
 30 32  1  0
 31 30  1  0
 32 34  2  0
 33 32  1  0
 34 36  1  0
 34 35  1  0
 36 37  1  0
M  END
$$$$
