-61.56514895
     RDKit          3D

 37 37  0  0  1  0  0  0  0  0999 V2000
   -0.0211   -0.9182   -1.0644 O   0  0  0  0  0  0  0  0  0  0  0  0
   -0.0474   -2.0045   -0.5517 C   0  0  0  0  0  0  0  0  0  0  0  0
    0.8937   -2.9273   -0.7311 O   0  0  0  0  0  0  0  0  0  0  0  0
    1.6129   -2.5786   -1.2858 H   0  0  0  0  0  0  0  0  0  0  0  0
   -1.1552   -2.4834    0.3746 C   0  0  2  0  0  0  0  0  0  0  0  0
   -0.7241   -3.0387    1.2090 H   0  0  0  0  0  0  0  0  0  0  0  0
   -1.8196   -3.1412   -0.1963 H   0  0  0  0  0  0  0  0  0  0  0  0
   -1.9246   -1.3588    0.8381 N   0  0  0  0  0  0  0  0  0  0  0  0
   -1.4223   -0.6769    1.4037 H   0  0  0  0  0  0  0  0  0  0  0  0
   -2.9419   -0.8810    0.0815 C   0  0  0  0  0  0  0  0  0  0  0  0
   -3.5251   -1.5225   -0.7630 O   0  0  0  0  0  0  0  0  0  0  0  0
   -3.2619    0.5857    0.4026 C   0  0  2  0  0  0  0  0  0  0  0  0
   -3.2955    0.7341    1.4850 H   0  0  0  0  0  0  0  0  0  0  0  0
   -4.2122    0.8683   -0.0486 H   0  0  0  0  0  0  0  0  0  0  0  0
   -2.2030    1.4093   -0.1475 N   0  0  0  0  0  0  0  0  0  0  0  0
   -2.3003    1.7418   -1.0934 H   0  0  0  0  0  0  0  0  0  0  0  0
   -1.0037    1.5368    0.4426 C   0  0  0  0  0  0  0  0  0  0  0  0
   -0.7599    1.0943    1.5536 O   0  0  0  0  0  0  0  0  0  0  0  0
    0.0001    2.3165   -0.4049 C   0  0  1  0  0  0  0  0  0  0  0  0
   -0.6095    3.5912   -0.7572 N   0  0  0  0  0  0  0  0  0  0  0  0
   -0.0017    4.1140   -1.3789 H   0  0  0  0  0  0  0  0  0  0  0  0
   -0.7523    4.1524    0.0766 H   0  0  0  0  0  0  0  0  0  0  0  0
    0.1340    1.7456   -1.3324 H   0  0  0  0  0  0  0  0  0  0  0  0
    1.3628    2.4160    0.3135 C   0  0  2  0  0  0  0  0  0  0  0  0
    1.1941    2.6848    1.3578 H   0  0  0  0  0  0  0  0  0  0  0  0
    1.9481    3.2063   -0.1661 H   0  0  0  0  0  0  0  0  0  0  0  0
    2.1069    1.1149    0.2267 C   0  0  0  0  0  0  0  0  0  0  0  0
    2.7405    0.7554   -0.9567 C   0  0  0  0  0  0  0  0  0  0  0  0
    2.7157    1.4279   -1.8027 H   0  0  0  0  0  0  0  0  0  0  0  0
    3.4043   -0.4531   -1.0640 C   0  0  0  0  0  0  0  0  0  0  0  0
    3.8950   -0.7168   -1.9908 H   0  0  0  0  0  0  0  0  0  0  0  0
    3.4449   -1.3208    0.0155 C   0  0  0  0  0  0  0  0  0  0  0  0
    3.9677   -2.2640   -0.0620 H   0  0  0  0  0  0  0  0  0  0  0  0
    2.8143   -0.9713    1.1979 C   0  0  0  0  0  0  0  0  0  0  0  0
    2.8401   -1.6462    2.0411 H   0  0  0  0  0  0  0  0  0  0  0  0
    2.1505    0.2381    1.3021 C   0  0  0  0  0  0  0  0  0  0  0  0
    1.6479    0.5020    2.2198 H   0  0  0  0  0  0  0  0  0  0  0  0
  1  2  2  0
  2  5  1  0
  3  2  1  0
  4  3  1  0
  5  8  1  0
  5  6  1  1
  7  5  1  0
  8  9  1  0
 10 12  1  0
 10  8  1  0
 11 10  2  0
 12 13  1  1
 14 12  1  0
 15 12  1  0
 15 17  1  0
 16 15  1  0
 17 18  2  0
 19 23  1  6
 19 24  1  0
 19 17  1  0
 20 19  1  0
 20 22  1  0
 21 20  1  0
 24 25  1  1
 26 24  1  0
 27 24  1  0
 27 36  2  0
 28 27  1  0
 29 28  1  0
 30 28  2  0
 30 32  1  0
 31 30  1  0
 32 34  2  0
 33 32  1  0
 34 36  1  0
 34 35  1  0
 36 37  1  0
M  END
$$$$
