 energy: -45.794040036322 gnorm: 0.000025939314 xtb: 6.5.1 (9af7eec)
     RDKit          3D

 29 28  0  0  0  0  0  0  0  0999 V2000
   -0.7602   -1.2951    0.7380 N   0  0  0  0  0  0  0  0  0  0  0  0
    0.1101   -0.3544    0.0571 C   0  0  2  0  0  0  0  0  0  0  0  0
    0.3113   -0.7642   -1.4225 C   0  0  0  0  0  0  0  0  0  0  0  0
    1.3929   -1.0820   -1.8746 O   0  0  0  0  0  0  0  0  0  0  0  0
    1.4622   -0.2779    0.7597 C   0  0  1  0  0  0  0  0  0  0  0  0
    1.3977    0.2928    2.1779 C   0  0  2  0  0  0  0  0  0  0  0  0
    1.1036   -0.7454    3.2477 C   0  0  0  0  0  0  0  0  0  0  0  0
    0.7105   -1.8736    3.0289 O   0  0  0  0  0  0  0  0  0  0  0  0
   -0.3045   -1.8961    1.4186 H   0  0  0  0  0  0  0  0  0  0  0  0
   -0.3852    0.6282    0.0558 H   0  0  0  0  0  0  0  0  0  0  0  0
    1.8953   -1.2793    0.7834 H   0  0  0  0  0  0  0  0  0  0  0  0
    2.1143    0.3432    0.1451 H   0  0  0  0  0  0  0  0  0  0  0  0
    0.6231    1.0623    2.2387 H   0  0  0  0  0  0  0  0  0  0  0  0
    2.3516    0.7634    2.4250 H   0  0  0  0  0  0  0  0  0  0  0  0
   -2.0990   -1.2423    0.6845 C   0  0  0  0  0  0  0  0  0  0  0  0
   -2.7043   -0.4804   -0.0586 O   0  0  0  0  0  0  0  0  0  0  0  0
   -0.8246   -0.7006   -2.1296 N   0  0  0  0  0  0  0  0  0  0  0  0
   -1.6862   -0.4593   -1.6438 H   0  0  0  0  0  0  0  0  0  0  0  0
   -0.8971   -1.0754   -3.5196 C   0  0  1  0  0  0  0  0  0  0  0  0
    0.1096   -1.3236   -3.8527 H   0  0  0  0  0  0  0  0  0  0  0  0
   -1.5472   -1.9424   -3.6527 H   0  0  0  0  0  0  0  0  0  0  0  0
   -1.2842   -0.2471   -4.1153 H   0  0  0  0  0  0  0  0  0  0  0  0
   -2.7912   -2.2298    1.5943 C   0  0  2  0  0  0  0  0  0  0  0  0
   -2.2971   -2.2765    2.5609 H   0  0  0  0  0  0  0  0  0  0  0  0
   -2.7539   -3.2171    1.1378 H   0  0  0  0  0  0  0  0  0  0  0  0
   -3.8312   -1.9420    1.7177 H   0  0  0  0  0  0  0  0  0  0  0  0
    1.3113   -0.3049    4.5064 N   0  0  0  0  0  0  0  0  0  0  0  0
    1.6462    0.6203    4.7051 H   0  0  0  0  0  0  0  0  0  0  0  0
    1.1420   -0.9320    5.2759 H   0  0  0  0  0  0  0  0  0  0  0  0
  1  9  1  0
  1  2  1  0
  1 15  1  0
  2  5  1  0
  2  3  1  0
  2 10  1  6
  3  4  1  0
  3 17  1  0
  5 11  1  1
  5 12  1  0
  5  6  1  0
  6 13  1  6
  6 14  1  0
  6  7  1  0
  7  8  1  0
  7 27  1  0
 15 23  1  0
 15 16  1  0
 17 19  1  0
 17 18  1  0
 19 21  1  1
 19 22  1  0
 19 20  1  0
 23 24  1  1
 23 26  1  0
 23 25  1  0
 27 29  1  0
 27 28  1  0
M  END
$$$$
