 energy: -45.795662648056 gnorm: 0.000020049807 xtb: 6.5.1 (9af7eec)
     RDKit          3D

 29 28  0  0  0  0  0  0  0  0999 V2000
   -1.0893   -1.4308    0.7940 N   0  0  0  0  0  0  0  0  0  0  0  0
   -0.6254   -0.5970   -0.2917 C   0  0  2  0  0  0  0  0  0  0  0  0
    0.2954   -1.4594   -1.1555 C   0  0  0  0  0  0  0  0  0  0  0  0
    0.8343   -2.4509   -0.6968 O   0  0  0  0  0  0  0  0  0  0  0  0
    0.1748    0.6113    0.2346 C   0  0  1  0  0  0  0  0  0  0  0  0
   -0.7484    1.7243    0.7337 C   0  0  2  0  0  0  0  0  0  0  0  0
   -1.5660    2.2528   -0.4378 C   0  0  0  0  0  0  0  0  0  0  0  0
   -1.0644    2.8834   -1.3491 O   0  0  0  0  0  0  0  0  0  0  0  0
   -0.4562   -2.1926    1.0098 H   0  0  0  0  0  0  0  0  0  0  0  0
   -1.4918   -0.2588   -0.8666 H   0  0  0  0  0  0  0  0  0  0  0  0
    0.8257    0.2678    1.0408 H   0  0  0  0  0  0  0  0  0  0  0  0
    0.8056    1.0112   -0.5606 H   0  0  0  0  0  0  0  0  0  0  0  0
   -0.1410    2.5421    1.1231 H   0  0  0  0  0  0  0  0  0  0  0  0
   -1.4041    1.3565    1.5207 H   0  0  0  0  0  0  0  0  0  0  0  0
   -2.3187   -1.3859    1.3336 C   0  0  0  0  0  0  0  0  0  0  0  0
   -3.1494   -0.5432    1.0346 O   0  0  0  0  0  0  0  0  0  0  0  0
    0.5099   -1.0493   -2.4155 N   0  0  0  0  0  0  0  0  0  0  0  0
    1.1152   -1.6550   -2.9527 H   0  0  0  0  0  0  0  0  0  0  0  0
   -0.1706    0.0008   -3.1411 C   0  0  1  0  0  0  0  0  0  0  0  0
    0.3804    0.2007   -4.0567 H   0  0  0  0  0  0  0  0  0  0  0  0
   -1.1881   -0.2997   -3.4080 H   0  0  0  0  0  0  0  0  0  0  0  0
   -0.2201    0.9247   -2.5661 H   0  0  0  0  0  0  0  0  0  0  0  0
   -2.5719   -2.4613    2.3650 C   0  0  2  0  0  0  0  0  0  0  0  0
   -1.8402   -2.3897    3.1663 H   0  0  0  0  0  0  0  0  0  0  0  0
   -2.4882   -3.4431    1.9046 H   0  0  0  0  0  0  0  0  0  0  0  0
   -3.5701   -2.3401    2.7754 H   0  0  0  0  0  0  0  0  0  0  0  0
   -2.8732    1.9423   -0.3871 N   0  0  0  0  0  0  0  0  0  0  0  0
   -3.2069    1.2165    0.2374 H   0  0  0  0  0  0  0  0  0  0  0  0
   -3.4597    2.2163   -1.1594 H   0  0  0  0  0  0  0  0  0  0  0  0
  1  9  1  0
  1  2  1  0
  1 15  1  0
  2  5  1  0
  2  3  1  0
  2 10  1  6
  3  4  1  0
  3 17  1  0
  5 11  1  1
  5 12  1  0
  5  6  1  0
  6 13  1  1
  6 14  1  0
  6  7  1  0
  7  8  1  0
  7 27  1  0
 15 23  1  0
 15 16  1  0
 17 19  1  0
 17 18  1  0
 19 21  1  6
 19 22  1  0
 19 20  1  0
 23 24  1  1
 23 26  1  0
 23 25  1  0
 27 29  1  0
 27 28  1  0
M  END
$$$$
