-42.45526349
     RDKit          3D

 26 26  0  0  1  0  0  0  0  0999 V2000
    2.4618   -1.2760   -0.0665 C   0  0  1  0  0  0  0  0  0  0  0  0
    1.1370   -0.8534   -0.7284 C   0  0  1  0  0  0  0  0  0  0  0  0
    0.0468   -0.6136    0.3407 C   0  0  2  0  0  0  0  0  0  0  0  0
   -1.2907   -0.1317   -0.2663 C   0  0  2  0  0  0  0  0  0  0  0  0
   -1.3036    1.3742    0.0602 C   0  0  2  0  0  0  0  0  0  0  0  0
   -0.7520    2.1471   -0.9606 O   0  0  0  0  0  0  0  0  0  0  0  0
   -0.4889    1.4115    1.3599 C   0  0  1  0  0  0  0  0  0  0  0  0
    3.0872   -0.1582    0.5054 O   0  0  0  0  0  0  0  0  0  0  0  0
   -2.4077   -0.7419    0.3316 O   0  0  0  0  0  0  0  0  0  0  0  0
    1.3620    0.3193   -1.4760 O   0  0  0  0  0  0  0  0  0  0  0  0
    0.4932    0.3971    1.2387 O   0  0  0  0  0  0  0  0  0  0  0  0
   -2.7301   -2.0044   -0.1983 C   0  0  1  0  0  0  0  0  0  0  0  0
    2.2794   -2.0645    0.6738 H   0  0  0  0  0  0  0  0  0  0  0  0
    3.1510   -1.6526   -0.8267 H   0  0  0  0  0  0  0  0  0  0  0  0
    0.7894   -1.6320   -1.4168 H   0  0  0  0  0  0  0  0  0  0  0  0
   -0.1164   -1.5432    0.9043 H   0  0  0  0  0  0  0  0  0  0  0  0
   -1.3064   -0.2851   -1.3540 H   0  0  0  0  0  0  0  0  0  0  0  0
   -2.3241    1.7273    0.2171 H   0  0  0  0  0  0  0  0  0  0  0  0
    0.0594    1.7056   -1.2736 H   0  0  0  0  0  0  0  0  0  0  0  0
    0.0248    2.3635    1.5000 H   0  0  0  0  0  0  0  0  0  0  0  0
   -1.1375    1.2018    2.2183 H   0  0  0  0  0  0  0  0  0  0  0  0
    2.4755    0.2130    1.1613 H   0  0  0  0  0  0  0  0  0  0  0  0
    2.1309    0.7514   -1.0614 H   0  0  0  0  0  0  0  0  0  0  0  0
   -3.6253   -2.3326    0.3254 H   0  0  0  0  0  0  0  0  0  0  0  0
   -2.9372   -1.9382   -1.2730 H   0  0  0  0  0  0  0  0  0  0  0  0
   -1.9277   -2.7342   -0.0382 H   0  0  0  0  0  0  0  0  0  0  0  0
  1  8  1  0
  1 13  1  1
  2 15  1  6
  2  1  1  0
  2  3  1  0
  3  4  1  0
  3 16  1  1
  3 11  1  0
  4  5  1  0
  4  9  1  0
  5 18  1  1
  5  7  1  0
  6  5  1  0
  7 20  1  1
  7 21  1  0
  8 22  1  0
 10 23  1  0
 10  2  1  0
 11  7  1  0
 12 26  1  6
 12 24  1  0
 12  9  1  0
 14  1  1  0
  4 17  1  6
 19  6  1  0
 25 12  1  0
M  END
$$$$
