-42.44867158
     RDKit          3D

 26 26  0  0  1  0  0  0  0  0999 V2000
    2.6860   -0.3743    0.0775 C   0  0  1  0  0  0  0  0  0  0  0  0
    1.4104   -0.5029   -0.7841 C   0  0  1  0  0  0  0  0  0  0  0  0
    0.1696   -0.6643    0.1231 C   0  0  2  0  0  0  0  0  0  0  0  0
   -1.1499   -0.2891   -0.5801 C   0  0  2  0  0  0  0  0  0  0  0  0
   -1.3578    1.1938   -0.1737 C   0  0  2  0  0  0  0  0  0  0  0  0
   -1.1231    2.0852   -1.2211 O   0  0  0  0  0  0  0  0  0  0  0  0
   -0.3776    1.3935    1.0055 C   0  0  1  0  0  0  0  0  0  0  0  0
    2.7647   -1.3275    1.0967 O   0  0  0  0  0  0  0  0  0  0  0  0
   -2.2147   -1.1518   -0.2688 O   0  0  0  0  0  0  0  0  0  0  0  0
    1.2710    0.6419   -1.6082 O   0  0  0  0  0  0  0  0  0  0  0  0
    0.2319    0.1451    1.2826 O   0  0  0  0  0  0  0  0  0  0  0  0
   -2.5952   -1.2400    1.0880 C   0  0  1  0  0  0  0  0  0  0  0  0
    3.5683   -0.5236   -0.5526 H   0  0  0  0  0  0  0  0  0  0  0  0
    2.7154    0.6457    0.4865 H   0  0  0  0  0  0  0  0  0  0  0  0
    1.4714   -1.4041   -1.4118 H   0  0  0  0  0  0  0  0  0  0  0  0
    0.1486   -1.7067    0.4572 H   0  0  0  0  0  0  0  0  0  0  0  0
   -1.0565   -0.3645   -1.6663 H   0  0  0  0  0  0  0  0  0  0  0  0
   -2.3946    1.3648    0.1237 H   0  0  0  0  0  0  0  0  0  0  0  0
   -0.2490    1.8819   -1.5882 H   0  0  0  0  0  0  0  0  0  0  0  0
    0.3791    2.1346    0.7166 H   0  0  0  0  0  0  0  0  0  0  0  0
   -0.8689    1.7240    1.9223 H   0  0  0  0  0  0  0  0  0  0  0  0
    2.0760   -1.1249    1.7427 H   0  0  0  0  0  0  0  0  0  0  0  0
    2.0650    0.7332   -2.1465 H   0  0  0  0  0  0  0  0  0  0  0  0
   -1.7594   -1.5190    1.7353 H   0  0  0  0  0  0  0  0  0  0  0  0
   -3.0264   -0.3030    1.4543 H   0  0  0  0  0  0  0  0  0  0  0  0
   -3.3544   -2.0190    1.1240 H   0  0  0  0  0  0  0  0  0  0  0  0
  1 14  1  1
  1  8  1  0
  2 15  1  6
  2  1  1  0
  2  3  1  0
  3  4  1  0
  3 16  1  1
  3 11  1  0
  4  9  1  0
  4  5  1  0
  5 18  1  1
  5  7  1  0
  6  5  1  0
  7 11  1  0
  7 21  1  1
  8 22  1  0
  9 12  1  0
 10  2  1  0
 12 26  1  6
 12 25  1  0
 12 24  1  0
 13  1  1  0
  4 17  1  6
 19  6  1  0
 20  7  1  0
 23 10  1  0
M  END
$$$$
