-42.44813859
     RDKit          3D

 26 26  0  0  1  0  0  0  0  0999 V2000
    2.3231   -0.0002   -0.1352 C   0  0  1  0  0  0  0  0  0  0  0  0
    1.3689   -1.1839    0.0773 C   0  0  1  0  0  0  0  0  0  0  0  0
    0.0095   -0.8059    0.7246 C   0  0  2  0  0  0  0  0  0  0  0  0
   -0.9358   -0.0068   -0.1950 C   0  0  2  0  0  0  0  0  0  0  0  0
   -0.9351    1.4260    0.3844 C   0  0  2  0  0  0  0  0  0  0  0  0
   -0.3911    2.3793   -0.4733 O   0  0  0  0  0  0  0  0  0  0  0  0
   -0.1682    1.2991    1.7168 C   0  0  1  0  0  0  0  0  0  0  0  0
    1.8979    0.8755   -1.1486 O   0  0  0  0  0  0  0  0  0  0  0  0
   -2.2574   -0.4970   -0.1712 O   0  0  0  0  0  0  0  0  0  0  0  0
    1.1852   -1.7861   -1.1896 O   0  0  0  0  0  0  0  0  0  0  0  0
    0.2011   -0.0568    1.9037 O   0  0  0  0  0  0  0  0  0  0  0  0
   -2.4862   -1.6078   -0.9988 C   0  0  1  0  0  0  0  0  0  0  0  0
    2.4031    0.5767    0.7858 H   0  0  0  0  0  0  0  0  0  0  0  0
    3.3123   -0.4062   -0.3850 H   0  0  0  0  0  0  0  0  0  0  0  0
    1.8721   -1.8783    0.7672 H   0  0  0  0  0  0  0  0  0  0  0  0
   -0.4844   -1.7428    1.0223 H   0  0  0  0  0  0  0  0  0  0  0  0
   -0.5671    0.0002   -1.2301 H   0  0  0  0  0  0  0  0  0  0  0  0
   -1.9727    1.7251    0.5518 H   0  0  0  0  0  0  0  0  0  0  0  0
    0.5051    2.0928   -0.7282 H   0  0  0  0  0  0  0  0  0  0  0  0
    0.7249    1.9370    1.6851 H   0  0  0  0  0  0  0  0  0  0  0  0
   -0.7771    1.5929    2.5746 H   0  0  0  0  0  0  0  0  0  0  0  0
    1.7557    0.3409   -1.9406 H   0  0  0  0  0  0  0  0  0  0  0  0
    0.6500   -2.5798   -1.0908 H   0  0  0  0  0  0  0  0  0  0  0  0
   -3.5563   -1.8002   -0.9595 H   0  0  0  0  0  0  0  0  0  0  0  0
   -2.1895   -1.3989   -2.0341 H   0  0  0  0  0  0  0  0  0  0  0  0
   -1.9503   -2.5005   -0.6511 H   0  0  0  0  0  0  0  0  0  0  0  0
  1  2  1  0
  1 13  1  1
  2  3  1  0
  2 15  1  1
  3  4  1  0
  3 16  1  1
  3 11  1  0
  4  9  1  0
  4  5  1  0
  5 18  1  1
  5  7  1  0
  6  5  1  0
  7 11  1  0
  7 21  1  1
  8  1  1  0
 10 23  1  0
 10  2  1  0
 12 24  1  6
 12 26  1  0
 12  9  1  0
 14  1  1  0
  4 17  1  6
 19  6  1  0
 20  7  1  0
 22  8  1  0
 25 12  1  0
M  END
$$$$
