-42.44758185
     RDKit          3D

 26 26  0  0  1  0  0  0  0  0999 V2000
    1.8751   -1.4743   -0.7158 C   0  0  1  0  0  0  0  0  0  0  0  0
    1.6323   -0.1356   -0.0013 C   0  0  1  0  0  0  0  0  0  0  0  0
    0.2663   -0.0541    0.6961 C   0  0  2  0  0  0  0  0  0  0  0  0
   -0.9571   -0.0417   -0.2532 C   0  0  2  0  0  0  0  0  0  0  0  0
   -1.5196    1.3870   -0.0828 C   0  0  2  0  0  0  0  0  0  0  0  0
   -0.9985    2.2871   -1.0207 O   0  0  0  0  0  0  0  0  0  0  0  0
   -1.0664    1.7099    1.3420 C   0  0  1  0  0  0  0  0  0  0  0  0
    1.2152   -1.5774   -1.9507 O   0  0  0  0  0  0  0  0  0  0  0  0
   -1.9582   -0.9503    0.1284 O   0  0  0  0  0  0  0  0  0  0  0  0
    2.6629    0.0260    0.9404 O   0  0  0  0  0  0  0  0  0  0  0  0
    0.2406    1.1778    1.4196 O   0  0  0  0  0  0  0  0  0  0  0  0
   -1.7153   -2.2844   -0.2564 C   0  0  1  0  0  0  0  0  0  0  0  0
    2.9599   -1.5898   -0.8283 H   0  0  0  0  0  0  0  0  0  0  0  0
    1.5056   -2.2969   -0.1008 H   0  0  0  0  0  0  0  0  0  0  0  0
    1.6844    0.6779   -0.7509 H   0  0  0  0  0  0  0  0  0  0  0  0
    0.1713   -0.8858    1.4089 H   0  0  0  0  0  0  0  0  0  0  0  0
   -0.6556   -0.2230   -1.2928 H   0  0  0  0  0  0  0  0  0  0  0  0
   -2.6026    1.3897   -0.2037 H   0  0  0  0  0  0  0  0  0  0  0  0
   -0.0711    2.4452   -0.8023 H   0  0  0  0  0  0  0  0  0  0  0  0
   -1.0050    2.7792    1.5448 H   0  0  0  0  0  0  0  0  0  0  0  0
   -1.7273    1.2227    2.0689 H   0  0  0  0  0  0  0  0  0  0  0  0
    1.6135   -0.9578   -2.5730 H   0  0  0  0  0  0  0  0  0  0  0  0
    2.3784    0.7030    1.5682 H   0  0  0  0  0  0  0  0  0  0  0  0
   -1.4671   -2.3489   -1.3202 H   0  0  0  0  0  0  0  0  0  0  0  0
   -0.8986   -2.7320    0.3201 H   0  0  0  0  0  0  0  0  0  0  0  0
   -2.6367   -2.8275   -0.0558 H   0  0  0  0  0  0  0  0  0  0  0  0
  1 14  1  1
  1  2  1  0
  2 15  1  6
  2  3  1  0
  2 10  1  0
  3  4  1  0
  3 16  1  1
  3 11  1  0
  4  5  1  0
  4  9  1  0
  5 18  1  1
  5  7  1  0
  6 19  1  0
  6  5  1  0
  7 11  1  0
  7 20  1  1
  7 21  1  0
  8  1  1  0
 10 23  1  0
 12 26  1  6
 12  9  1  0
 12 25  1  0
 13  1  1  0
  4 17  1  6
 22  8  1  0
 24 12  1  0
M  END
$$$$
