-42.44757871
     RDKit          3D

 26 26  0  0  1  0  0  0  0  0999 V2000
    2.2139   -0.0933   -0.7568 C   0  0  1  0  0  0  0  0  0  0  0  0
    1.4950   -0.8856    0.3482 C   0  0  1  0  0  0  0  0  0  0  0  0
    0.2370   -0.2015    0.8838 C   0  0  2  0  0  0  0  0  0  0  0  0
   -0.8583    0.0704   -0.1653 C   0  0  2  0  0  0  0  0  0  0  0  0
   -1.6457    1.2497    0.4665 C   0  0  2  0  0  0  0  0  0  0  0  0
   -1.9294    2.2800   -0.4385 O   0  0  0  0  0  0  0  0  0  0  0  0
   -0.7349    1.6842    1.6388 C   0  0  1  0  0  0  0  0  0  0  0  0
    3.4537   -0.6773   -1.0518 O   0  0  0  0  0  0  0  0  0  0  0  0
   -1.5911   -1.1064   -0.3876 O   0  0  0  0  0  0  0  0  0  0  0  0
    1.1882   -2.1858   -0.1070 O   0  0  0  0  0  0  0  0  0  0  0  0
    0.5187    1.0607    1.4386 O   0  0  0  0  0  0  0  0  0  0  0  0
   -2.5117   -1.0121   -1.4548 C   0  0  1  0  0  0  0  0  0  0  0  0
    1.5935   -0.0660   -1.6660 H   0  0  0  0  0  0  0  0  0  0  0  0
    2.4070    0.9250   -0.4156 H   0  0  0  0  0  0  0  0  0  0  0  0
    2.2039   -1.0045    1.1771 H   0  0  0  0  0  0  0  0  0  0  0  0
   -0.2098   -0.8649    1.6455 H   0  0  0  0  0  0  0  0  0  0  0  0
   -0.4188    0.4247   -1.1119 H   0  0  0  0  0  0  0  0  0  0  0  0
   -2.6173    0.9036    0.8273 H   0  0  0  0  0  0  0  0  0  0  0  0
   -1.1027    2.6880   -0.7241 H   0  0  0  0  0  0  0  0  0  0  0  0
   -0.5772    2.7635    1.6599 H   0  0  0  0  0  0  0  0  0  0  0  0
   -1.1646    1.3620    2.5958 H   0  0  0  0  0  0  0  0  0  0  0  0
    3.3150   -1.6328   -1.0987 H   0  0  0  0  0  0  0  0  0  0  0  0
    0.2936   -2.1828   -0.4744 H   0  0  0  0  0  0  0  0  0  0  0  0
   -1.9917   -0.8219   -2.4010 H   0  0  0  0  0  0  0  0  0  0  0  0
   -3.0202   -1.9724   -1.5017 H   0  0  0  0  0  0  0  0  0  0  0  0
   -3.2402   -0.2150   -1.2868 H   0  0  0  0  0  0  0  0  0  0  0  0
  1 14  1  1
  1  2  1  0
  2  3  1  0
  2 15  1  1
  3  4  1  0
  3 11  1  0
  3 16  1  1
  4  5  1  0
  5 18  1  1
  5  7  1  0
  6  5  1  0
  7 20  1  1
  7 21  1  0
  8  1  1  0
  9  4  1  0
 10  2  1  0
 11  7  1  0
 12 26  1  1
 12  9  1  0
 13  1  1  0
  4 17  1  6
 19  6  1  0
 22  8  1  0
 23 10  1  0
 24 12  1  0
 25 12  1  0
M  END
$$$$
