-42.45225468
     RDKit          3D

 26 26  0  0  1  0  0  0  0  0999 V2000
    2.6053   -1.0316    0.3300 C   0  0  1  0  0  0  0  0  0  0  0  0
    1.3499   -0.5578   -0.4153 C   0  0  1  0  0  0  0  0  0  0  0  0
    0.1350   -0.4887    0.5299 C   0  0  2  0  0  0  0  0  0  0  0  0
   -1.2072   -0.3342   -0.2127 C   0  0  2  0  0  0  0  0  0  0  0  0
   -1.5393    1.1636   -0.0305 C   0  0  2  0  0  0  0  0  0  0  0  0
   -1.0510    1.9450   -1.0813 O   0  0  0  0  0  0  0  0  0  0  0  0
   -0.8668    1.4505    1.3186 C   0  0  1  0  0  0  0  0  0  0  0  0
    3.7165   -1.0668   -0.5243 O   0  0  0  0  0  0  0  0  0  0  0  0
   -2.1426   -1.1940    0.3902 O   0  0  0  0  0  0  0  0  0  0  0  0
    1.5872    0.7228   -0.9660 O   0  0  0  0  0  0  0  0  0  0  0  0
    0.3134    0.6681    1.3390 O   0  0  0  0  0  0  0  0  0  0  0  0
   -3.2941   -1.4345   -0.3843 C   0  0  1  0  0  0  0  0  0  0  0  0
    2.7837   -0.3544    1.1797 H   0  0  0  0  0  0  0  0  0  0  0  0
    2.4637   -2.0449    0.7090 H   0  0  0  0  0  0  0  0  0  0  0  0
    1.1529   -1.2225   -1.2608 H   0  0  0  0  0  0  0  0  0  0  0  0
    0.0859   -1.3836    1.1611 H   0  0  0  0  0  0  0  0  0  0  0  0
   -1.1070   -0.5712   -1.2818 H   0  0  0  0  0  0  0  0  0  0  0  0
   -2.6146    1.3450    0.0153 H   0  0  0  0  0  0  0  0  0  0  0  0
   -0.1293    1.6882   -1.2612 H   0  0  0  0  0  0  0  0  0  0  0  0
   -0.5817    2.4972    1.4331 H   0  0  0  0  0  0  0  0  0  0  0  0
   -1.5309    1.1511    2.1383 H   0  0  0  0  0  0  0  0  0  0  0  0
    3.6946   -0.2656   -1.0654 H   0  0  0  0  0  0  0  0  0  0  0  0
    1.6788    1.3195   -0.2045 H   0  0  0  0  0  0  0  0  0  0  0  0
   -3.0299   -1.8805   -1.3503 H   0  0  0  0  0  0  0  0  0  0  0  0
   -3.8999   -2.1342    0.1872 H   0  0  0  0  0  0  0  0  0  0  0  0
   -3.8667   -0.5189   -0.5635 H   0  0  0  0  0  0  0  0  0  0  0  0
  1 14  1  1
  1 13  1  0
  2 15  1  6
  2  1  1  0
  2  3  1  0
  3  4  1  0
  3 16  1  1
  3 11  1  0
  4  5  1  0
  4  9  1  0
  5 18  1  1
  5  7  1  0
  6  5  1  0
  7 11  1  0
  7 20  1  1
  7 21  1  0
  8  1  1  0
 10  2  1  0
 10 23  1  0
 12 25  1  1
 12  9  1  0
  4 17  1  6
 19  6  1  0
 22  8  1  0
 24 12  1  0
 26 12  1  0
M  END
$$$$
