-42.45205611
     RDKit          3D

 26 26  0  0  1  0  0  0  0  0999 V2000
    2.1019   -0.1304   -1.0118 C   0  0  1  0  0  0  0  0  0  0  0  0
    1.5355   -1.1604   -0.0090 C   0  0  1  0  0  0  0  0  0  0  0  0
    0.2602   -0.6786    0.7066 C   0  0  2  0  0  0  0  0  0  0  0  0
   -0.8667   -0.1466   -0.2077 C   0  0  2  0  0  0  0  0  0  0  0  0
   -1.1482    1.2760    0.3419 C   0  0  2  0  0  0  0  0  0  0  0  0
   -0.6062    2.2749   -0.4680 O   0  0  0  0  0  0  0  0  0  0  0  0
   -0.5119    1.2100    1.7393 C   0  0  1  0  0  0  0  0  0  0  0  0
    2.0340    1.2008   -0.5601 O   0  0  0  0  0  0  0  0  0  0  0  0
   -1.9554   -1.0347   -0.1094 O   0  0  0  0  0  0  0  0  0  0  0  0
    1.3389   -2.4022   -0.6310 O   0  0  0  0  0  0  0  0  0  0  0  0
    0.6095    0.3612    1.6036 O   0  0  0  0  0  0  0  0  0  0  0  0
   -2.9423   -0.8542   -1.0977 C   0  0  1  0  0  0  0  0  0  0  0  0
    3.1409   -0.4073   -1.2360 H   0  0  0  0  0  0  0  0  0  0  0  0
    1.5412   -0.1661   -1.9511 H   0  0  0  0  0  0  0  0  0  0  0  0
    2.2839   -1.3363    0.7733 H   0  0  0  0  0  0  0  0  0  0  0  0
   -0.1593   -1.5319    1.2638 H   0  0  0  0  0  0  0  0  0  0  0  0
   -0.5529   -0.0639   -1.2590 H   0  0  0  0  0  0  0  0  0  0  0  0
   -2.2200    1.4758    0.4034 H   0  0  0  0  0  0  0  0  0  0  0  0
    0.3481    2.1009   -0.5768 H   0  0  0  0  0  0  0  0  0  0  0  0
   -0.1598    2.1814    2.0856 H   0  0  0  0  0  0  0  0  0  0  0  0
   -1.2242    0.7875    2.4594 H   0  0  0  0  0  0  0  0  0  0  0  0
    2.2543    1.2123    0.3814 H   0  0  0  0  0  0  0  0  0  0  0  0
    0.5408   -2.3632   -1.1715 H   0  0  0  0  0  0  0  0  0  0  0  0
   -2.5228   -0.9926   -2.1020 H   0  0  0  0  0  0  0  0  0  0  0  0
   -3.6984   -1.6134   -0.9107 H   0  0  0  0  0  0  0  0  0  0  0  0
   -3.3996    0.1383   -1.0438 H   0  0  0  0  0  0  0  0  0  0  0  0
  1  8  1  0
  1  2  1  0
  2  3  1  0
  2 15  1  1
  3  4  1  0
  3 16  1  1
  3 11  1  0
  4  9  1  0
  4  5  1  0
  5 18  1  1
  5  7  1  0
  6  5  1  0
  7 20  1  1
  7 21  1  0
  8 22  1  0
 10  2  1  0
 11  7  1  0
 12 26  1  6
 12 25  1  0
 12  9  1  0
  1 13  1  6
 14  1  1  0
  4 17  1  6
 19  6  1  0
 23 10  1  0
 24 12  1  0
M  END
$$$$
