-42.45128152
     RDKit          3D

 26 26  0  0  1  0  0  0  0  0999 V2000
    2.4187    0.0215   -0.2379 C   0  0  1  0  0  0  0  0  0  0  0  0
    1.5239   -1.1676    0.1443 C   0  0  1  0  0  0  0  0  0  0  0  0
    0.2039   -0.7290    0.8163 C   0  0  2  0  0  0  0  0  0  0  0  0
   -0.8550   -0.1707   -0.1594 C   0  0  2  0  0  0  0  0  0  0  0  0
   -1.1101    1.2684    0.3467 C   0  0  2  0  0  0  0  0  0  0  0  0
   -0.4898    2.2385   -0.4424 O   0  0  0  0  0  0  0  0  0  0  0  0
   -0.5738    1.2027    1.7866 C   0  0  1  0  0  0  0  0  0  0  0  0
    1.8686    0.8158   -1.2583 O   0  0  0  0  0  0  0  0  0  0  0  0
   -1.9847   -1.0132   -0.0914 O   0  0  0  0  0  0  0  0  0  0  0  0
    1.2794   -1.9051   -1.0341 O   0  0  0  0  0  0  0  0  0  0  0  0
    0.4865    0.2681    1.7735 O   0  0  0  0  0  0  0  0  0  0  0  0
   -2.8963   -0.8364   -1.1499 C   0  0  1  0  0  0  0  0  0  0  0  0
    2.5461    0.6634    0.6342 H   0  0  0  0  0  0  0  0  0  0  0  0
    3.3949   -0.3713   -0.5482 H   0  0  0  0  0  0  0  0  0  0  0  0
    2.0850   -1.7744    0.8712 H   0  0  0  0  0  0  0  0  0  0  0  0
   -0.2543   -1.6039    1.3083 H   0  0  0  0  0  0  0  0  0  0  0  0
   -0.4833   -0.1404   -1.1926 H   0  0  0  0  0  0  0  0  0  0  0  0
   -2.1764    1.5080    0.3423 H   0  0  0  0  0  0  0  0  0  0  0  0
    0.4306    1.9693   -0.6113 H   0  0  0  0  0  0  0  0  0  0  0  0
   -0.1730    2.1586    2.1243 H   0  0  0  0  0  0  0  0  0  0  0  0
   -1.3667    0.8666    2.4678 H   0  0  0  0  0  0  0  0  0  0  0  0
    1.7104    0.2363   -2.0145 H   0  0  0  0  0  0  0  0  0  0  0  0
    0.6574   -2.6135   -0.8368 H   0  0  0  0  0  0  0  0  0  0  0  0
   -3.7030   -1.5457   -0.9767 H   0  0  0  0  0  0  0  0  0  0  0  0
   -3.3025    0.1795   -1.1742 H   0  0  0  0  0  0  0  0  0  0  0  0
   -2.4205   -1.0481   -2.1152 H   0  0  0  0  0  0  0  0  0  0  0  0
  1  2  1  0
  1 13  1  1
  2  3  1  0
  2 15  1  1
  3  4  1  0
  3 16  1  1
  3 11  1  0
  4  9  1  0
  4  5  1  0
  5 18  1  1
  5  7  1  0
  6  5  1  0
  7 20  1  1
  7 21  1  0
  8  1  1  0
 10 23  1  0
 10  2  1  0
 11  7  1  0
 12 24  1  1
 12  9  1  0
 14  1  1  0
  4 17  1  6
 19  6  1  0
 22  8  1  0
 25 12  1  0
 26 12  1  0
M  END
$$$$
