 energy: -46.430055170058 gnorm: 0.000040961835 xtb: 6.5.1 (9af7eec)
     RDKit          3D

 28 27  0  0  0  0  0  0  0  0999 V2000
   -0.1687    1.4352   -0.0974 N   0  0  0  0  0  0  0  0  0  0  0  0
    0.5427    1.7580   -0.7338 H   0  0  0  0  0  0  0  0  0  0  0  0
    0.2641    0.5899    1.0031 C   0  0  1  0  0  0  0  0  0  0  0  0
   -0.6049   -0.0014    1.3120 H   0  0  0  0  0  0  0  0  0  0  0  0
    1.4090   -0.3182    0.5623 C   0  0  2  0  0  0  0  0  0  0  0  0
    0.6904    1.4929    2.1826 C   0  0  0  0  0  0  0  0  0  0  0  0
    2.3366    0.2591    0.5771 H   0  0  0  0  0  0  0  0  0  0  0  0
    1.2219   -0.6732   -0.4530 H   0  0  0  0  0  0  0  0  0  0  0  0
    1.5570   -1.5279    1.4932 C   0  0  2  0  0  0  0  0  0  0  0  0
    1.8554    1.7622    2.4082 O   0  0  0  0  0  0  0  0  0  0  0  0
    2.3956   -2.1395    1.1624 H   0  0  0  0  0  0  0  0  0  0  0  0
    0.6397   -2.1176    1.4903 H   0  0  0  0  0  0  0  0  0  0  0  0
    1.8263   -1.0500    2.9019 C   0  0  0  0  0  0  0  0  0  0  0  0
    3.1208   -0.8227    3.1048 O   0  0  0  0  0  0  0  0  0  0  0  0
    0.9845   -0.8863    3.7450 O   0  0  0  0  0  0  0  0  0  0  0  0
   -1.4118    1.9628   -0.1501 C   0  0  0  0  0  0  0  0  0  0  0  0
   -1.6564    2.8437   -1.3535 C   0  0  2  0  0  0  0  0  0  0  0  0
   -2.2533    1.7273    0.6962 O   0  0  0  0  0  0  0  0  0  0  0  0
   -2.6992    3.1463   -1.3699 H   0  0  0  0  0  0  0  0  0  0  0  0
   -1.4197    2.3083   -2.2700 H   0  0  0  0  0  0  0  0  0  0  0  0
   -1.0290    3.7308   -1.2939 H   0  0  0  0  0  0  0  0  0  0  0  0
   -0.3502    1.9699    2.8722 N   0  0  0  0  0  0  0  0  0  0  0  0
   -0.2015    2.8430    4.0094 C   0  0  1  0  0  0  0  0  0  0  0  0
   -1.2872    1.7393    2.5649 H   0  0  0  0  0  0  0  0  0  0  0  0
   -0.5896    2.3620    4.9087 H   0  0  0  0  0  0  0  0  0  0  0  0
    0.8606    3.0452    4.1388 H   0  0  0  0  0  0  0  0  0  0  0  0
   -0.7349    3.7805    3.8443 H   0  0  0  0  0  0  0  0  0  0  0  0
    3.2645   -0.3955    3.9634 H   0  0  0  0  0  0  0  0  0  0  0  0
  1  2  1  0
  1  3  1  0
  1 16  1  0
  3  6  1  0
  3  5  1  0
  3  4  1  1
  5  7  1  6
  5  8  1  0
  5  9  1  0
  6 10  1  0
  6 22  1  0
  9 13  1  0
  9 12  1  1
  9 11  1  0
 13 15  1  0
 13 14  1  0
 14 28  1  0
 16 17  1  0
 16 18  1  0
 17 20  1  6
 17 21  1  0
 17 19  1  0
 22 23  1  0
 22 24  1  0
 23 27  1  6
 23 26  1  0
 23 25  1  0
M  END
$$$$
