 energy: -46.426038000216 gnorm: 0.000029926578 xtb: 6.5.1 (9af7eec)
     RDKit          3D

 28 27  0  0  0  0  0  0  0  0999 V2000
   -0.6021    1.2083   -0.6029 N   0  0  0  0  0  0  0  0  0  0  0  0
   -0.7083    0.6864   -1.4613 H   0  0  0  0  0  0  0  0  0  0  0  0
   -0.1588    0.4351    0.5301 C   0  0  1  0  0  0  0  0  0  0  0  0
    0.3027    1.1430    1.2285 H   0  0  0  0  0  0  0  0  0  0  0  0
   -1.3438   -0.2794    1.2082 C   0  0  2  0  0  0  0  0  0  0  0  0
    0.8467   -0.6147    0.0465 C   0  0  0  0  0  0  0  0  0  0  0  0
   -1.0249   -0.6686    2.1760 H   0  0  0  0  0  0  0  0  0  0  0  0
   -1.6651   -1.1166    0.5866 H   0  0  0  0  0  0  0  0  0  0  0  0
   -2.5145    0.6860    1.3966 C   0  0  2  0  0  0  0  0  0  0  0  0
    0.8383   -1.0257   -1.0953 O   0  0  0  0  0  0  0  0  0  0  0  0
   -2.1842    1.6178    1.8567 H   0  0  0  0  0  0  0  0  0  0  0  0
   -3.2683    0.2235    2.0379 H   0  0  0  0  0  0  0  0  0  0  0  0
   -3.1938    1.0216    0.0917 C   0  0  1  0  0  0  0  0  0  0  0  0
   -3.3948   -0.0622   -0.6746 O   0  0  0  0  0  0  0  0  0  0  0  0
   -3.5812    2.1104   -0.2381 O   0  0  0  0  0  0  0  0  0  0  0  0
   -0.5043    2.5651   -0.6133 C   0  0  1  0  0  0  0  0  0  0  0  0
   -0.9548    3.2028   -1.9025 C   0  0  2  0  0  0  0  0  0  0  0  0
   -0.1423    3.1879    0.3618 O   0  0  0  0  0  0  0  0  0  0  0  0
   -0.5535    4.2096   -1.9681 H   0  0  0  0  0  0  0  0  0  0  0  0
   -2.0422    3.2660   -1.8757 H   0  0  0  0  0  0  0  0  0  0  0  0
   -0.6486    2.6201   -2.7669 H   0  0  0  0  0  0  0  0  0  0  0  0
    1.6909   -1.0539    0.9980 N   0  0  0  0  0  0  0  0  0  0  0  0
    2.6903   -2.0652    0.7479 C   0  0  1  0  0  0  0  0  0  0  0  0
    1.6663   -0.6378    1.9149 H   0  0  0  0  0  0  0  0  0  0  0  0
    2.5439   -2.9209    1.4090 H   0  0  0  0  0  0  0  0  0  0  0  0
    2.5794   -2.3836   -0.2871 H   0  0  0  0  0  0  0  0  0  0  0  0
    3.6937   -1.6632    0.8969 H   0  0  0  0  0  0  0  0  0  0  0  0
   -3.8630    0.1853   -1.4866 H   0  0  0  0  0  0  0  0  0  0  0  0
  1  2  1  0
  1  3  1  0
  1 16  1  0
  3  6  1  0
  3  5  1  0
  3  4  1  1
  5  7  1  1
  5  8  1  0
  5  9  1  0
  6 10  1  0
  6 22  1  0
  9 13  1  0
  9 12  1  1
  9 11  1  0
 13 15  1  1
 13 14  1  0
 14 28  1  0
 16 17  1  0
 16 18  1  1
 17 20  1  1
 17 21  1  0
 17 19  1  0
 22 23  1  0
 22 24  1  0
 23 27  1  6
 23 26  1  0
 23 25  1  0
M  END
$$$$
