 energy: -46.428694784209 gnorm: 0.000038585707 xtb: 6.5.1 (9af7eec)
     RDKit          3D

 28 27  0  0  0  0  0  0  0  0999 V2000
   -2.0068    0.8911    1.5273 N   0  0  0  0  0  0  0  0  0  0  0  0
   -2.8311    0.9087    2.1064 H   0  0  0  0  0  0  0  0  0  0  0  0
   -1.4223   -0.4132    1.2568 C   0  0  1  0  0  0  0  0  0  0  0  0
   -0.3348   -0.2813    1.2243 H   0  0  0  0  0  0  0  0  0  0  0  0
   -1.8055   -1.3847    2.3715 C   0  0  2  0  0  0  0  0  0  0  0  0
   -1.8987   -0.9228   -0.1222 C   0  0  0  0  0  0  0  0  0  0  0  0
   -2.8830   -1.5553    2.3284 H   0  0  0  0  0  0  0  0  0  0  0  0
   -1.5456   -0.9370    3.3327 H   0  0  0  0  0  0  0  0  0  0  0  0
   -1.0992   -2.7300    2.2315 C   0  0  2  0  0  0  0  0  0  0  0  0
   -2.6849   -1.8418   -0.2505 O   0  0  0  0  0  0  0  0  0  0  0  0
   -1.2842   -3.1530    1.2427 H   0  0  0  0  0  0  0  0  0  0  0  0
   -1.4931   -3.4407    2.9613 H   0  0  0  0  0  0  0  0  0  0  0  0
    0.3873   -2.6399    2.4489 C   0  0  0  0  0  0  0  0  0  0  0  0
    0.9836   -3.8231    2.2502 O   0  0  0  0  0  0  0  0  0  0  0  0
    1.0010   -1.6579    2.7704 O   0  0  0  0  0  0  0  0  0  0  0  0
   -1.5099    2.0443    1.0372 C   0  0  0  0  0  0  0  0  0  0  0  0
   -2.2251    3.2822    1.5277 C   0  0  2  0  0  0  0  0  0  0  0  0
   -0.5688    2.0755    0.2641 O   0  0  0  0  0  0  0  0  0  0  0  0
   -1.7686    4.1601    1.0805 H   0  0  0  0  0  0  0  0  0  0  0  0
   -2.1509    3.3516    2.6107 H   0  0  0  0  0  0  0  0  0  0  0  0
   -3.2761    3.2424    1.2499 H   0  0  0  0  0  0  0  0  0  0  0  0
   -1.3468   -0.2450   -1.1373 N   0  0  0  0  0  0  0  0  0  0  0  0
   -1.6818   -0.4995   -2.5166 C   0  0  1  0  0  0  0  0  0  0  0  0
   -0.7647    0.5599   -0.9209 H   0  0  0  0  0  0  0  0  0  0  0  0
   -2.3499   -1.3591   -2.5467 H   0  0  0  0  0  0  0  0  0  0  0  0
   -2.1819    0.3641   -2.9593 H   0  0  0  0  0  0  0  0  0  0  0  0
   -0.7794   -0.7189   -3.0894 H   0  0  0  0  0  0  0  0  0  0  0  0
    1.9399   -3.7500    2.3976 H   0  0  0  0  0  0  0  0  0  0  0  0
  1  2  1  0
  1  3  1  0
  1 16  1  0
  3  6  1  0
  3  5  1  0
  3  4  1  6
  5  7  1  1
  5  8  1  0
  5  9  1  0
  6 10  1  0
  6 22  1  0
  9 13  1  0
  9 12  1  1
  9 11  1  0
 13 15  1  0
 13 14  1  0
 14 28  1  0
 16 17  1  0
 16 18  1  0
 17 20  1  1
 17 21  1  0
 17 19  1  0
 22 23  1  0
 22 24  1  0
 23 27  1  6
 23 26  1  0
 23 25  1  0
M  END
$$$$
