-43.25123650
     RDKit          3D

 25 24  0  0  1  0  0  0  0  0999 V2000
   -0.4564   -1.0908   -0.7314 N   0  0  0  0  0  0  0  0  0  0  0  0
   -0.1157   -0.7204   -1.6131 H   0  0  0  0  0  0  0  0  0  0  0  0
   -0.4920   -0.1402    0.3406 C   0  0  1  0  0  0  0  0  0  0  0  0
   -1.3188   -0.3791    1.0159 H   0  0  0  0  0  0  0  0  0  0  0  0
    0.8349   -0.1408    1.1513 C   0  0  2  0  0  0  0  0  0  0  0  0
   -0.7018    1.2496   -0.2862 C   0  0  0  0  0  0  0  0  0  0  0  0
    1.1186   -1.1707    1.3662 H   0  0  0  0  0  0  0  0  0  0  0  0
    0.7061    0.4167    2.0775 H   0  0  0  0  0  0  0  0  0  0  0  0
    1.9361    0.5024    0.3392 C   0  0  0  0  0  0  0  0  0  0  0  0
   -0.4545    1.4461   -1.4579 O   0  0  0  0  0  0  0  0  0  0  0  0
    1.9274    1.8362    0.4818 O   0  0  0  0  0  0  0  0  0  0  0  0
    2.7239   -0.0756   -0.3516 O   0  0  0  0  0  0  0  0  0  0  0  0
   -1.1813    2.2305    0.5005 N   0  0  0  0  0  0  0  0  0  0  0  0
   -1.4105    2.2420    1.9230 C   0  0  1  0  0  0  0  0  0  0  0  0
   -1.2280    3.1291    0.0387 H   0  0  0  0  0  0  0  0  0  0  0  0
   -1.7519    1.2687    2.2693 H   0  0  0  0  0  0  0  0  0  0  0  0
   -0.5039    2.5169    2.4702 H   0  0  0  0  0  0  0  0  0  0  0  0
   -2.1844    2.9747    2.1476 H   0  0  0  0  0  0  0  0  0  0  0  0
   -0.8413   -2.3906   -0.7326 C   0  0  0  0  0  0  0  0  0  0  0  0
   -1.3784   -2.9314    0.5781 C   0  0  1  0  0  0  0  0  0  0  0  0
   -0.7659   -3.0634   -1.7355 O   0  0  0  0  0  0  0  0  0  0  0  0
   -1.5743   -3.9924    0.4536 H   0  0  0  0  0  0  0  0  0  0  0  0
   -0.6643   -2.7914    1.3853 H   0  0  0  0  0  0  0  0  0  0  0  0
   -2.3111   -2.4322    0.8349 H   0  0  0  0  0  0  0  0  0  0  0  0
    2.5922    2.2404   -0.0983 H   0  0  0  0  0  0  0  0  0  0  0  0
  1  3  1  0
  2  1  1  0
  3  4  1  1
  3  5  1  0
  5  7  1  1
  5  8  1  0
  6  3  1  0
  6 13  1  0
  9 11  1  0
  9  5  1  0
 10  6  2  0
 12  9  2  0
 13 14  1  0
 14 18  1  6
 14 16  1  0
 14 17  1  0
 15 13  1  0
 19  1  1  0
 19 20  1  0
 20 24  1  1
 20 23  1  0
 21 19  2  0
 22 20  1  0
 25 11  1  0
M  END
$$$$
