-43.25570998
     RDKit          3D

 25 24  0  0  1  0  0  0  0  0999 V2000
   -0.8804   -0.9619   -1.0187 N   0  0  0  0  0  0  0  0  0  0  0  0
   -1.1350   -0.5483   -1.9079 H   0  0  0  0  0  0  0  0  0  0  0  0
   -0.1589   -0.0874   -0.1284 C   0  0  1  0  0  0  0  0  0  0  0  0
   -0.2275   -0.4535    0.8948 H   0  0  0  0  0  0  0  0  0  0  0  0
    1.3211    0.0192   -0.5399 C   0  0  2  0  0  0  0  0  0  0  0  0
   -0.7935    1.3069   -0.2714 C   0  0  0  0  0  0  0  0  0  0  0  0
    1.4098    0.6074   -1.4560 H   0  0  0  0  0  0  0  0  0  0  0  0
    1.7302   -0.9734   -0.7439 H   0  0  0  0  0  0  0  0  0  0  0  0
    2.1580    0.6603    0.5352 C   0  0  0  0  0  0  0  0  0  0  0  0
   -0.8267    1.8510   -1.3584 O   0  0  0  0  0  0  0  0  0  0  0  0
    3.3772    0.9689    0.0955 O   0  0  0  0  0  0  0  0  0  0  0  0
    1.8026    0.8676    1.6666 O   0  0  0  0  0  0  0  0  0  0  0  0
   -1.3228    1.8772    0.8207 N   0  0  0  0  0  0  0  0  0  0  0  0
   -1.3360    1.3813    2.1784 C   0  0  1  0  0  0  0  0  0  0  0  0
   -1.7329    2.7857    0.6546 H   0  0  0  0  0  0  0  0  0  0  0  0
   -1.7502    2.1511    2.8239 H   0  0  0  0  0  0  0  0  0  0  0  0
   -1.9604    0.4885    2.2643 H   0  0  0  0  0  0  0  0  0  0  0  0
   -0.3233    1.1533    2.5145 H   0  0  0  0  0  0  0  0  0  0  0  0
   -1.1699   -2.2778   -0.8716 C   0  0  0  0  0  0  0  0  0  0  0  0
   -0.7562   -2.9135    0.4389 C   0  0  1  0  0  0  0  0  0  0  0  0
   -1.7418   -2.8877   -1.7485 O   0  0  0  0  0  0  0  0  0  0  0  0
    0.3093   -2.7897    0.6150 H   0  0  0  0  0  0  0  0  0  0  0  0
   -1.3064   -2.4665    1.2642 H   0  0  0  0  0  0  0  0  0  0  0  0
   -0.9919   -3.9728    0.3938 H   0  0  0  0  0  0  0  0  0  0  0  0
    3.9084    1.3756    0.7991 H   0  0  0  0  0  0  0  0  0  0  0  0
  1 19  1  0
  1  3  1  0
  2  1  1  0
  3  4  1  1
  5  3  1  0
  5  9  1  0
  6  3  1  0
  6 13  1  0
  5  7  1  6
  8  5  1  0
  9 12  2  0
 10  6  2  0
 11  9  1  0
 11 25  1  0
 13 14  1  0
 14 17  1  6
 14 18  1  0
 14 16  1  0
 15 13  1  0
 19 20  1  0
 20 22  1  1
 20 23  1  0
 21 19  2  0
 24 20  1  0
M  END
$$$$
