-43.25091062
     RDKit          3D

 25 24  0  0  1  0  0  0  0  0999 V2000
   -0.4352   -1.0707   -0.6833 N   0  0  0  0  0  0  0  0  0  0  0  0
   -0.0421   -0.7349   -1.5564 H   0  0  0  0  0  0  0  0  0  0  0  0
   -0.4439   -0.1076    0.3791 C   0  0  1  0  0  0  0  0  0  0  0  0
   -1.2444   -0.3416    1.0845 H   0  0  0  0  0  0  0  0  0  0  0  0
    0.9105   -0.0853    1.1426 C   0  0  2  0  0  0  0  0  0  0  0  0
   -0.6655    1.2766   -0.2531 C   0  0  0  0  0  0  0  0  0  0  0  0
    1.1852   -1.1067    1.4058 H   0  0  0  0  0  0  0  0  0  0  0  0
    0.8272    0.5278    2.0390 H   0  0  0  0  0  0  0  0  0  0  0  0
    1.9870    0.4947    0.2510 C   0  0  0  0  0  0  0  0  0  0  0  0
   -0.2911    1.5158   -1.3817 O   0  0  0  0  0  0  0  0  0  0  0  0
    2.1005    1.8168    0.4288 O   0  0  0  0  0  0  0  0  0  0  0  0
    2.6588   -0.1254   -0.5216 O   0  0  0  0  0  0  0  0  0  0  0  0
   -1.2658    2.2118    0.5053 N   0  0  0  0  0  0  0  0  0  0  0  0
   -1.8190    2.0723    1.8306 C   0  0  1  0  0  0  0  0  0  0  0  0
   -1.3766    3.1053    0.0475 H   0  0  0  0  0  0  0  0  0  0  0  0
   -1.0684    1.7195    2.5392 H   0  0  0  0  0  0  0  0  0  0  0  0
   -2.1704    3.0448    2.1651 H   0  0  0  0  0  0  0  0  0  0  0  0
   -2.6661    1.3809    1.8387 H   0  0  0  0  0  0  0  0  0  0  0  0
   -0.8320   -2.3668   -0.6619 C   0  0  0  0  0  0  0  0  0  0  0  0
   -1.3930   -2.8739    0.6526 C   0  0  1  0  0  0  0  0  0  0  0  0
   -0.7546   -3.0606   -1.6501 O   0  0  0  0  0  0  0  0  0  0  0  0
   -1.6058   -3.9335    0.5449 H   0  0  0  0  0  0  0  0  0  0  0  0
   -0.6832   -2.7321    1.4634 H   0  0  0  0  0  0  0  0  0  0  0  0
   -2.3189   -2.3544    0.8919 H   0  0  0  0  0  0  0  0  0  0  0  0
    2.7362    2.1887   -0.2031 H   0  0  0  0  0  0  0  0  0  0  0  0
  1 19  1  0
  1  3  1  0
  2  1  1  0
  3  4  1  1
  3  5  1  0
  5  7  1  1
  5  8  1  0
  6  3  1  0
  6 13  1  0
  9 11  1  0
  9  5  1  0
 10  6  2  0
 12  9  2  0
 13 14  1  0
 14 18  1  6
 14 17  1  0
 14 16  1  0
 15 13  1  0
 19 20  1  0
 20 24  1  1
 20 23  1  0
 21 19  2  0
 22 20  1  0
 25 11  1  0
M  END
$$$$
