-43.24882146
     RDKit          3D

 25 24  0  0  1  0  0  0  0  0999 V2000
   -0.2237   -1.1405   -0.0593 N   0  0  0  0  0  0  0  0  0  0  0  0
    0.3548   -1.1633   -0.8875 H   0  0  0  0  0  0  0  0  0  0  0  0
    0.0203   -0.0653    0.8593 C   0  0  1  0  0  0  0  0  0  0  0  0
   -0.3904   -0.3441    1.8368 H   0  0  0  0  0  0  0  0  0  0  0  0
    1.5277    0.1514    1.0673 C   0  0  2  0  0  0  0  0  0  0  0  0
   -0.6150    1.3098    0.5568 C   0  0  0  0  0  0  0  0  0  0  0  0
    2.0008   -0.7643    1.4276 H   0  0  0  0  0  0  0  0  0  0  0  0
    1.6602    0.9188    1.8350 H   0  0  0  0  0  0  0  0  0  0  0  0
    2.2954    0.6217   -0.1435 C   0  0  0  0  0  0  0  0  0  0  0  0
   -0.4064    2.2137    1.3456 O   0  0  0  0  0  0  0  0  0  0  0  0
    1.5253    0.8562   -1.2193 O   0  0  0  0  0  0  0  0  0  0  0  0
    3.4837    0.7794   -0.1681 O   0  0  0  0  0  0  0  0  0  0  0  0
   -1.4219    1.5125   -0.4990 N   0  0  0  0  0  0  0  0  0  0  0  0
   -1.7422    0.6903   -1.6442 C   0  0  1  0  0  0  0  0  0  0  0  0
   -1.7495    2.4689   -0.5365 H   0  0  0  0  0  0  0  0  0  0  0  0
   -0.8423    0.4046   -2.1898 H   0  0  0  0  0  0  0  0  0  0  0  0
   -2.2823   -0.2117   -1.3562 H   0  0  0  0  0  0  0  0  0  0  0  0
   -2.3783    1.2694   -2.3097 H   0  0  0  0  0  0  0  0  0  0  0  0
   -1.1829   -2.0987   -0.0092 C   0  0  0  0  0  0  0  0  0  0  0  0
   -2.0942   -2.0839    1.1967 C   0  0  1  0  0  0  0  0  0  0  0  0
   -1.2814   -2.9109   -0.9051 O   0  0  0  0  0  0  0  0  0  0  0  0
   -2.5795   -1.1168    1.3063 H   0  0  0  0  0  0  0  0  0  0  0  0
   -2.8490   -2.8542    1.0655 H   0  0  0  0  0  0  0  0  0  0  0  0
   -1.5272   -2.3002    2.0999 H   0  0  0  0  0  0  0  0  0  0  0  0
    2.0713    1.2008   -1.9444 H   0  0  0  0  0  0  0  0  0  0  0  0
  1 19  1  0
  1  3  1  0
  2  1  1  0
  3  5  1  0
  3  4  1  1
  5  7  1  1
  5  8  1  0
  6  3  1  0
  6 10  2  0
  9  5  1  0
 11  9  1  0
 12  9  2  0
 13  6  1  0
 14 17  1  1
 14 13  1  0
 15 13  1  0
 16 14  1  0
 18 14  1  0
 19 20  1  0
 20 22  1  1
 20 24  1  0
 21 19  2  0
 23 20  1  0
 25 11  1  0
M  END
$$$$
