-43.24692356
     RDKit          3D

 25 24  0  0  1  0  0  0  0  0999 V2000
   -0.6106   -1.4240    0.2064 N   0  0  0  0  0  0  0  0  0  0  0  0
   -0.8590   -1.9369    1.0411 H   0  0  0  0  0  0  0  0  0  0  0  0
   -0.2458   -0.0409    0.4062 C   0  0  1  0  0  0  0  0  0  0  0  0
   -0.0836    0.0791    1.4842 H   0  0  0  0  0  0  0  0  0  0  0  0
    1.0758    0.3156   -0.3042 C   0  0  2  0  0  0  0  0  0  0  0  0
   -1.3958    0.9085    0.0137 C   0  0  0  0  0  0  0  0  0  0  0  0
    0.9993    1.2694   -0.8307 H   0  0  0  0  0  0  0  0  0  0  0  0
    1.3350   -0.4440   -1.0387 H   0  0  0  0  0  0  0  0  0  0  0  0
    2.2280    0.4294    0.6676 C   0  0  0  0  0  0  0  0  0  0  0  0
   -2.3581    0.5350   -0.6218 O   0  0  0  0  0  0  0  0  0  0  0  0
    3.4010    0.2718    0.0578 O   0  0  0  0  0  0  0  0  0  0  0  0
    2.1257    0.6525    1.8451 O   0  0  0  0  0  0  0  0  0  0  0  0
   -1.2962    2.1896    0.4237 N   0  0  0  0  0  0  0  0  0  0  0  0
   -0.2919    2.8573    1.2155 C   0  0  1  0  0  0  0  0  0  0  0  0
   -2.0779    2.7640    0.1346 H   0  0  0  0  0  0  0  0  0  0  0  0
    0.3196    3.5147    0.5900 H   0  0  0  0  0  0  0  0  0  0  0  0
   -0.7800    3.4678    1.9761 H   0  0  0  0  0  0  0  0  0  0  0  0
    0.3597    2.1456    1.7132 H   0  0  0  0  0  0  0  0  0  0  0  0
   -0.9485   -2.1137   -0.9220 C   0  0  0  0  0  0  0  0  0  0  0  0
   -0.7248   -1.4684   -2.2676 C   0  0  1  0  0  0  0  0  0  0  0  0
   -1.3554   -3.2503   -0.8088 O   0  0  0  0  0  0  0  0  0  0  0  0
   -0.9329   -0.4057   -2.2490 H   0  0  0  0  0  0  0  0  0  0  0  0
    0.2993   -1.6451   -2.5937 H   0  0  0  0  0  0  0  0  0  0  0  0
   -1.3887   -1.9527   -2.9787 H   0  0  0  0  0  0  0  0  0  0  0  0
    4.1355    0.3550    0.6872 H   0  0  0  0  0  0  0  0  0  0  0  0
  1  3  1  0
  1  2  1  0
  3  4  1  1
  5  3  1  0
  5  9  1  0
  6  3  1  0
  6 13  1  0
  5  7  1  6
  8  5  1  0
  9 12  2  0
 10  6  2  0
 11  9  1  0
 11 25  1  0
 13 14  1  0
 14 18  1  1
 14 17  1  0
 15 13  1  0
 16 14  1  0
 19 21  2  0
 19  1  1  0
 20 22  1  1
 20 19  1  0
 23 20  1  0
 24 20  1  0
M  END
$$$$
