-43.25521356
     RDKit          3D

 25 24  0  0  1  0  0  0  0  0999 V2000
   -0.8671   -0.8403   -0.9806 N   0  0  0  0  0  0  0  0  0  0  0  0
   -1.4408   -0.4953   -1.7455 H   0  0  0  0  0  0  0  0  0  0  0  0
   -0.4120    0.1868   -0.0884 C   0  0  1  0  0  0  0  0  0  0  0  0
   -0.4537   -0.1598    0.9493 H   0  0  0  0  0  0  0  0  0  0  0  0
    1.0403    0.6284   -0.4193 C   0  0  2  0  0  0  0  0  0  0  0  0
   -1.3534    1.3875   -0.2796 C   0  0  0  0  0  0  0  0  0  0  0  0
    1.0961    1.7171   -0.4985 H   0  0  0  0  0  0  0  0  0  0  0  0
    1.3494    0.2110   -1.3777 H   0  0  0  0  0  0  0  0  0  0  0  0
    2.0222    0.2149    0.6472 C   0  0  0  0  0  0  0  0  0  0  0  0
   -2.0059    1.5128   -1.2962 O   0  0  0  0  0  0  0  0  0  0  0  0
    3.2136   -0.0973    0.1408 O   0  0  0  0  0  0  0  0  0  0  0  0
    1.7822    0.1814    1.8269 O   0  0  0  0  0  0  0  0  0  0  0  0
   -1.3805    2.3133    0.6943 N   0  0  0  0  0  0  0  0  0  0  0  0
   -0.8058    2.2701    2.0191 C   0  0  1  0  0  0  0  0  0  0  0  0
   -2.0397    3.0622    0.5247 H   0  0  0  0  0  0  0  0  0  0  0  0
   -0.5593    3.2854    2.3269 H   0  0  0  0  0  0  0  0  0  0  0  0
   -1.5151    1.8531    2.7399 H   0  0  0  0  0  0  0  0  0  0  0  0
    0.1023    1.6736    2.0391 H   0  0  0  0  0  0  0  0  0  0  0  0
   -0.6615   -2.1784   -0.9267 C   0  0  0  0  0  0  0  0  0  0  0  0
    0.1803   -2.6745    0.2287 C   0  0  1  0  0  0  0  0  0  0  0  0
   -1.1270   -2.9140   -1.7690 O   0  0  0  0  0  0  0  0  0  0  0  0
   -0.2696   -2.3986    1.1798 H   0  0  0  0  0  0  0  0  0  0  0  0
    0.2500   -3.7566    0.1673 H   0  0  0  0  0  0  0  0  0  0  0  0
    1.1796   -2.2490    0.1789 H   0  0  0  0  0  0  0  0  0  0  0  0
    3.8421   -0.3355    0.8417 H   0  0  0  0  0  0  0  0  0  0  0  0
  1 19  1  0
  1  3  1  0
  2  1  1  0
  3  4  1  1
  5  3  1  0
  5  9  1  0
  6  3  1  0
  6 13  1  0
  5  7  1  6
  8  5  1  0
  9 12  2  0
 10  6  2  0
 11  9  1  0
 11 25  1  0
 13 14  1  0
 14 18  1  6
 14 16  1  0
 14 17  1  0
 15 13  1  0
 19 20  1  0
 20 22  1  1
 21 19  2  0
 23 20  1  0
 24 20  1  0
M  END
$$$$
