-13.66417741
     RDKit          3D

 14 13  0  0  0  0  0  0  0  0999 V2000
    1.5705   -0.0341    0.5635 C   0  0  2  0  0  0  0  0  0  0  0  0
    1.7292   -1.1106    0.5701 H   0  0  0  0  0  0  0  0  0  0  0  0
    1.1297    0.2552    1.5138 H   0  0  0  0  0  0  0  0  0  0  0  0
    2.5387    0.4543    0.4778 H   0  0  0  0  0  0  0  0  0  0  0  0
    0.6720    0.3645   -0.6015 C   0  0  1  0  0  0  0  0  0  0  0  0
    0.4955    1.4423   -0.5712 H   0  0  0  0  0  0  0  0  0  0  0  0
    1.1895    0.1413   -1.5379 H   0  0  0  0  0  0  0  0  0  0  0  0
   -0.6720   -0.3647   -0.6015 C   0  0  2  0  0  0  0  0  0  0  0  0
   -0.4954   -1.4424   -0.5709 H   0  0  0  0  0  0  0  0  0  0  0  0
   -1.1894   -0.1417   -1.5379 H   0  0  0  0  0  0  0  0  0  0  0  0
   -1.5705    0.0342    0.5635 C   0  0  1  0  0  0  0  0  0  0  0  0
   -1.1297   -0.2547    1.5139 H   0  0  0  0  0  0  0  0  0  0  0  0
   -1.7293    1.1106    0.5699 H   0  0  0  0  0  0  0  0  0  0  0  0
   -2.5387   -0.4542    0.4780 H   0  0  0  0  0  0  0  0  0  0  0  0
  1  2  1  1
  1  3  1  0
  4  1  1  0
  5  8  1  0
  5  6  1  1
  5  1  1  0
  7  5  1  0
  8  9  1  1
  8 11  1  0
 10  8  1  0
 11 13  1  1
 11 12  1  0
 14 11  1  0
M  END
$$$$
