-14.63273856
     RDKit          3D

 10  9  0  0  0  0  0  0  0  0999 V2000
   -0.6863    0.5920   -0.2039 N   0  0  0  0  0  0  0  0  0  0  0  0
   -1.4574   -0.5608    0.0909 N   0  0  0  0  0  0  0  0  0  0  0  0
   -1.6655   -0.5689    1.0862 H   0  0  0  0  0  0  0  0  0  0  0  0
   -0.9651   -1.4231   -0.1529 H   0  0  0  0  0  0  0  0  0  0  0  0
   -0.6713    0.6887   -1.2171 H   0  0  0  0  0  0  0  0  0  0  0  0
    0.6405    0.6206    0.2408 N   0  0  0  0  0  0  0  0  0  0  0  0
    1.4139   -0.5127   -0.1960 N   0  0  0  0  0  0  0  0  0  0  0  0
    0.6376    0.7126    1.2570 H   0  0  0  0  0  0  0  0  0  0  0  0
    2.2895   -0.1684   -0.5753 H   0  0  0  0  0  0  0  0  0  0  0  0
    1.6162   -1.1737    0.5495 H   0  0  0  0  0  0  0  0  0  0  0  0
  1  2  1  0
  1  6  1  0
  2  3  1  0
  4  2  1  0
  5  1  1  0
  6  8  1  0
  7  6  1  0
  7 10  1  0
  9  7  1  0
M  END
$$$$
