16
B40
C          1.87600        0.13100       -0.32100
H          2.88700        0.45700       -0.06300
O          1.65300       -1.20000        0.15000
C          0.86400        1.05600        0.33500
H          0.90800        0.90100        1.41500
H          1.19100        2.08100        0.14900
C         -0.57500        0.90800       -0.16500
H         -0.60600        1.02700       -1.25000
H         -1.18100        1.71400        0.25600
H          2.29600       -1.77300       -0.27500
H          1.77100        0.17900       -1.41000
C         -1.25000       -0.40100        0.20700
H         -0.77900       -1.23900       -0.30700
H         -1.15300       -0.57300        1.28400
O         -2.62500       -0.27600       -0.16500
H         -3.04500       -1.12500       -0.00900
