B55
     RDKit          3D

 16 15  0  0  0  0  0  0  0  0999 V2000
    1.5400   -0.4210   -0.2970 C   0  0  1  0  0  0  0  0  0  0  0  0
    1.4710   -0.4250   -1.3910 H   0  0  0  0  0  0  0  0  0  0  0  0
    2.9000   -0.3940    0.1270 O   0  0  0  0  0  0  0  0  0  0  0  0
    0.7300    0.7410    0.2650 C   0  0  1  0  0  0  0  0  0  0  0  0
    0.7680    0.7030    1.3550 H   0  0  0  0  0  0  0  0  0  0  0  0
    1.2150    1.6750   -0.0340 H   0  0  0  0  0  0  0  0  0  0  0  0
   -0.7220    0.7660   -0.2180 C   0  0  2  0  0  0  0  0  0  0  0  0
   -0.7580    0.7890   -1.3100 H   0  0  0  0  0  0  0  0  0  0  0  0
   -1.2100    1.6760    0.1330 H   0  0  0  0  0  0  0  0  0  0  0  0
    3.2780    0.4360   -0.1780 H   0  0  0  0  0  0  0  0  0  0  0  0
    1.1520   -1.3730    0.0590 H   0  0  0  0  0  0  0  0  0  0  0  0
   -1.5410   -0.4150    0.2720 C   0  0  1  0  0  0  0  0  0  0  0  0
   -1.1610   -1.3510   -0.1470 H   0  0  0  0  0  0  0  0  0  0  0  0
   -1.4720   -0.4820    1.3630 H   0  0  0  0  0  0  0  0  0  0  0  0
   -2.8890   -0.1960   -0.1400 O   0  0  0  0  0  0  0  0  0  0  0  0
   -3.4070   -0.9580    0.1320 H   0  0  0  0  0  0  0  0  0  0  0  0
  1  2  1  6
  1 11  1  0
  1  3  1  0
  1  4  1  0
  3 10  1  0
  4  7  1  0
  4  6  1  6
  4  5  1  0
  7  8  1  6
  7  9  1  0
  7 12  1  0
 12 13  1  6
 12 15  1  0
 12 14  1  0
 15 16  1  0
M  END
$$$$
