16
B48
C          0.22800        1.53500       -0.34100
H         -0.10300        2.56700       -0.24000
O          1.64600        1.60200       -0.46400
C         -0.22800        0.73100        0.87300
H          0.15000        1.22100        1.77200
H         -1.32000        0.77700        0.92900
C          0.22800       -0.73100        0.87300
H         -0.15000       -1.22100        1.77200
H          1.32000       -0.77700        0.92900
H          1.96400        0.72200       -0.68000
H         -0.21800        1.14100       -1.26100
C         -0.22800       -1.53500       -0.34100
H          0.21800       -1.14100       -1.26100
H          0.10300       -2.56700       -0.24000
O         -1.64600       -1.60200       -0.46400
H         -1.96400       -0.72200       -0.68000
