16
B3
C          1.42900       -0.09700        0.54900
H          0.90400       -0.56100        1.38900
O          1.53700       -1.01000       -0.53300
C          0.74000        1.21000        0.15600
H          0.61500        1.81600        1.05800
H          1.40000        1.76600       -0.51400
C         -0.61600        1.04100       -0.53900
H         -0.47500        0.59400       -1.52500
H         -1.05100        2.02900       -0.70100
H          0.66000       -1.39900       -0.62300
H          2.44600        0.11900        0.87700
C         -1.62900        0.19500        0.21500
H         -1.63200        0.45800        1.27800
H         -2.63100        0.37000       -0.18400
O         -1.27600       -1.18500        0.04300
H         -1.87000       -1.72000        0.57700
