B44
     RDKit          3D

 16 15  0  0  0  0  0  0  0  0999 V2000
   -1.2700   -0.3860    0.2580 C   0  0  1  0  0  0  0  0  0  0  0  0
   -1.2280   -0.4810    1.3430 H   0  0  0  0  0  0  0  0  0  0  0  0
   -2.6610   -0.3610   -0.0660 O   0  0  0  0  0  0  0  0  0  0  0  0
   -0.5670    0.8990   -0.1710 C   0  0  1  0  0  0  0  0  0  0  0  0
   -0.5720    0.9670   -1.2640 H   0  0  0  0  0  0  0  0  0  0  0  0
   -1.1670    1.7340    0.1970 H   0  0  0  0  0  0  0  0  0  0  0  0
    0.8700    1.0490    0.3370 C   0  0  2  0  0  0  0  0  0  0  0  0
    0.8970    0.9000    1.4220 H   0  0  0  0  0  0  0  0  0  0  0  0
    1.1990    2.0770    0.1620 H   0  0  0  0  0  0  0  0  0  0  0  0
   -2.7310   -0.4120   -1.0220 H   0  0  0  0  0  0  0  0  0  0  0  0
   -0.7810   -1.2600   -0.1710 H   0  0  0  0  0  0  0  0  0  0  0  0
    1.8920    0.1280   -0.3200 C   0  0  1  0  0  0  0  0  0  0  0  0
    1.8180    0.2060   -1.4050 H   0  0  0  0  0  0  0  0  0  0  0  0
    2.9020    0.4370   -0.0360 H   0  0  0  0  0  0  0  0  0  0  0  0
    1.6960   -1.2560   -0.0290 O   0  0  0  0  0  0  0  0  0  0  0  0
    1.8300   -1.3720    0.9160 H   0  0  0  0  0  0  0  0  0  0  0  0
  1  4  1  0
  1 11  1  6
  1  3  1  0
  1  2  1  0
  3 10  1  0
  4  5  1  6
  4  6  1  0
  4  7  1  0
  7 12  1  0
  7  9  1  1
  7  8  1  0
 12 13  1  6
 12 14  1  0
 12 15  1  0
 15 16  1  0
M  END
$$$$
