16
B4
C         -1.43900       -0.11000        0.53200
H         -2.47200        0.07500        0.82500
O         -1.47300       -1.08400       -0.50200
C         -0.79800        1.20400        0.08700
H         -1.45700        1.69400       -0.63200
H         -0.73100        1.86100        0.96000
C          0.59200        1.05600       -0.54400
H          1.01300        2.05200       -0.70000
H          0.50400        0.59600       -1.53000
H         -0.58600       -1.46200       -0.50400
H         -0.91700       -0.50600        1.40800
C          1.58100        0.23800        0.28200
H          2.60600        0.47200       -0.01100
H          1.48100        0.46900        1.34300
O          1.36100       -1.18000        0.16600
H          1.84300       -1.47800       -0.61000
