16
B12
C         -1.36400       -0.32300       -0.65200
H         -0.74900       -1.20200       -0.86400
O         -2.03200       -0.46300        0.60500
C         -0.49200        0.91800       -0.58700
H          0.05700        0.99200       -1.52600
H         -1.13500        1.79700       -0.51000
C          0.49200        0.91800        0.58700
H         -0.05700        0.99200        1.52600
H          1.13500        1.79600        0.51000
H         -2.60000       -1.23600        0.55000
H         -2.08900       -0.21700       -1.46400
C          1.36400       -0.32300        0.65200
H          2.08900       -0.21700        1.46400
H          0.74900       -1.20200        0.86300
O          2.03300       -0.46300       -0.60500
H          2.59800       -1.23700       -0.55100
