B12
     RDKit          3D

 16 15  0  0  0  0  0  0  0  0999 V2000
   -1.3640   -0.3230   -0.6520 C   0  0  1  0  0  0  0  0  0  0  0  0
   -0.7490   -1.2020   -0.8640 H   0  0  0  0  0  0  0  0  0  0  0  0
   -2.0320   -0.4630    0.6050 O   0  0  0  0  0  0  0  0  0  0  0  0
   -0.4920    0.9180   -0.5870 C   0  0  1  0  0  0  0  0  0  0  0  0
    0.0570    0.9920   -1.5260 H   0  0  0  0  0  0  0  0  0  0  0  0
   -1.1350    1.7970   -0.5100 H   0  0  0  0  0  0  0  0  0  0  0  0
    0.4920    0.9180    0.5870 C   0  0  2  0  0  0  0  0  0  0  0  0
   -0.0570    0.9920    1.5260 H   0  0  0  0  0  0  0  0  0  0  0  0
    1.1350    1.7960    0.5100 H   0  0  0  0  0  0  0  0  0  0  0  0
   -2.6000   -1.2360    0.5500 H   0  0  0  0  0  0  0  0  0  0  0  0
   -2.0890   -0.2170   -1.4640 H   0  0  0  0  0  0  0  0  0  0  0  0
    1.3640   -0.3230    0.6520 C   0  0  1  0  0  0  0  0  0  0  0  0
    2.0890   -0.2170    1.4640 H   0  0  0  0  0  0  0  0  0  0  0  0
    0.7490   -1.2020    0.8630 H   0  0  0  0  0  0  0  0  0  0  0  0
    2.0330   -0.4630   -0.6050 O   0  0  0  0  0  0  0  0  0  0  0  0
    2.5980   -1.2370   -0.5510 H   0  0  0  0  0  0  0  0  0  0  0  0
  1 11  1  6
  1  2  1  0
  1  4  1  0
  1  3  1  0
  3 10  1  0
  4  5  1  6
  4  6  1  0
  4  7  1  0
  7  9  1  6
  7 12  1  0
  7  8  1  0
 12 15  1  0
 12 14  1  1
 12 13  1  0
 15 16  1  0
M  END
$$$$
