B16
     RDKit          3D

 16 15  0  0  0  0  0  0  0  0999 V2000
   -1.8060    0.3630   -0.2700 C   0  0  1  0  0  0  0  0  0  0  0  0
   -1.7730    0.4120   -1.3640 H   0  0  0  0  0  0  0  0  0  0  0  0
   -2.8830   -0.4600    0.1670 O   0  0  0  0  0  0  0  0  0  0  0  0
   -0.4570   -0.0930    0.2670 C   0  0  1  0  0  0  0  0  0  0  0  0
   -0.5100   -0.1320    1.3580 H   0  0  0  0  0  0  0  0  0  0  0  0
   -0.2480   -1.1050   -0.0840 H   0  0  0  0  0  0  0  0  0  0  0  0
    0.6770    0.8320   -0.1690 C   0  0  2  0  0  0  0  0  0  0  0  0
    0.5040    1.8410    0.2160 H   0  0  0  0  0  0  0  0  0  0  0  0
    0.7040    0.9030   -1.2590 H   0  0  0  0  0  0  0  0  0  0  0  0
   -2.7040   -1.3510   -0.1450 H   0  0  0  0  0  0  0  0  0  0  0  0
   -2.0390    1.3640    0.0950 H   0  0  0  0  0  0  0  0  0  0  0  0
    2.0380    0.3610    0.3110 C   0  0  1  0  0  0  0  0  0  0  0  0
    2.8030    1.0940    0.0390 H   0  0  0  0  0  0  0  0  0  0  0  0
    2.0320    0.2630    1.4020 H   0  0  0  0  0  0  0  0  0  0  0  0
    2.3050   -0.8970   -0.3070 O   0  0  0  0  0  0  0  0  0  0  0  0
    3.1500   -1.2140    0.0220 H   0  0  0  0  0  0  0  0  0  0  0  0
  1  2  1  6
  1 11  1  0
  1  3  1  0
  1  4  1  0
  3 10  1  0
  4  7  1  0
  4  6  1  6
  4  5  1  0
  7  9  1  6
  7  8  1  0
  7 12  1  0
 12 15  1  0
 12 13  1  1
 12 14  1  0
 15 16  1  0
M  END
$$$$
