16
B21
C          2.04600        0.35500        0.32100
H          2.04400        0.24000        1.41100
O          2.46300       -0.85200       -0.31100
C          0.67900        0.83500       -0.15200
H          0.48600        1.81300        0.29800
H          0.71600        0.97500       -1.23400
C         -0.44900       -0.12800        0.21100
H         -0.47000       -0.29500        1.29100
H         -0.29200       -1.09800       -0.26700
H          1.89800       -1.55900        0.01100
H          2.80700        1.09100        0.06800
C         -1.80700        0.38900       -0.22400
H         -2.01100        1.34800        0.26400
H         -1.81000        0.55400       -1.30600
O         -2.78100       -0.58500        0.14500
H         -3.64000       -0.26500       -0.14000
