16
B27
C         -0.44700        1.88500        0.00000
H         -1.09300        1.88600        0.88500
O          0.41800        3.01800        0.00000
C          0.41800        0.63900        0.00000
H          1.06600        0.66800       -0.87800
H          1.06600        0.66800        0.87800
C         -0.41800       -0.63900        0.00000
H         -1.06600       -0.66800       -0.87800
H         -1.06600       -0.66800        0.87800
H         -0.13000        3.80600        0.00000
H         -1.09300        1.88600       -0.88500
C          0.44700       -1.88500        0.00000
H          1.09300       -1.88600       -0.88500
H          1.09300       -1.88600        0.88500
O         -0.41800       -3.01800        0.00000
H          0.13000       -3.80600        0.00000
