-51.73994782
     RDKit          3D

 35 34  0  0  1  0  0  0  0  0999 V2000
    2.0604    1.4660    0.1714 N   0  0  0  0  0  0  0  0  0  0  0  0
    2.8737    1.2400   -0.3919 H   0  0  0  0  0  0  0  0  0  0  0  0
    0.9163    0.6278   -0.0889 C   0  0  1  0  0  0  0  0  0  0  0  0
    0.3255    0.5035    0.8224 H   0  0  0  0  0  0  0  0  0  0  0  0
    0.0330    1.2409   -1.2040 C   0  0  1  0  0  0  0  0  0  0  0  0
    1.4818   -0.7365   -0.5223 C   0  0  0  0  0  0  0  0  0  0  0  0
    0.1825    2.3226   -1.1794 H   0  0  0  0  0  0  0  0  0  0  0  0
    0.3804    0.8892   -2.1770 H   0  0  0  0  0  0  0  0  0  0  0  0
   -1.4569    0.9463   -1.0353 C   0  0  2  0  0  0  0  0  0  0  0  0
    2.4814   -0.8031   -1.2143 O   0  0  0  0  0  0  0  0  0  0  0  0
   -2.0366    1.7003   -1.5729 H   0  0  0  0  0  0  0  0  0  0  0  0
   -1.7156    1.0231    0.0232 H   0  0  0  0  0  0  0  0  0  0  0  0
   -1.8599   -0.4517   -1.5287 C   0  0  2  0  0  0  0  0  0  0  0  0
   -1.0403   -1.1502   -1.3761 H   0  0  0  0  0  0  0  0  0  0  0  0
   -2.0995   -0.4273   -2.5938 H   0  0  0  0  0  0  0  0  0  0  0  0
   -3.0115   -0.9873   -0.8338 N   0  0  0  0  0  0  0  0  0  0  0  0
   -3.8949   -0.5636   -1.0762 H   0  0  0  0  0  0  0  0  0  0  0  0
   -2.9108   -1.4074    0.4621 C   0  0  0  0  0  0  0  0  0  0  0  0
   -1.7722   -1.5949    1.0107 N   0  0  0  0  0  2  0  0  0  0  0  0
   -4.1244   -1.5892    1.0965 N   0  0  0  0  0  0  0  0  0  0  0  0
   -1.8314   -1.9657    1.9526 H   0  0  0  0  0  0  0  0  0  0  0  0
   -4.1162   -2.1573    1.9283 H   0  0  0  0  0  0  0  0  0  0  0  0
   -4.9453   -1.7022    0.5243 H   0  0  0  0  0  0  0  0  0  0  0  0
    0.8026   -1.7929   -0.0613 N   0  0  0  0  0  0  0  0  0  0  0  0
    1.1852   -3.1435   -0.3972 C   0  0  2  0  0  0  0  0  0  0  0  0
   -0.0920   -1.6702    0.4349 H   0  0  0  0  0  0  0  0  0  0  0  0
    0.3968   -3.6359   -0.9704 H   0  0  0  0  0  0  0  0  0  0  0  0
    1.3730   -3.7184    0.5109 H   0  0  0  0  0  0  0  0  0  0  0  0
    2.0955   -3.1024   -0.9936 H   0  0  0  0  0  0  0  0  0  0  0  0
    2.1707    2.5158    1.0118 C   0  0  0  0  0  0  0  0  0  0  0  0
    0.9459    2.8291    1.8494 C   0  0  1  0  0  0  0  0  0  0  0  0
    3.1989    3.1564    1.0911 O   0  0  0  0  0  0  0  0  0  0  0  0
    1.1517    3.7155    2.4424 H   0  0  0  0  0  0  0  0  0  0  0  0
    0.0800    3.0093    1.2180 H   0  0  0  0  0  0  0  0  0  0  0  0
    0.7298    1.9981    2.5177 H   0  0  0  0  0  0  0  0  0  0  0  0
  1 30  1  0
  2  1  1  0
  3  1  1  0
  3  4  1  1
  5  7  1  6
  5  9  1  0
  5  3  1  0
  6  3  1  0
  6 24  1  0
  8  5  1  0
  9 12  1  1
 10  6  2  0
 11  9  1  0
 13 14  1  6
 13  9  1  0
 13 16  1  0
 15 13  1  0
 16 18  1  0
 17 16  1  0
 18 19  1  0
 18 20  2  0
 19 21  1  0
 20 22  1  0
 23 20  1  0
 24 26  1  0
 25 24  1  0
 25 28  1  1
 27 25  1  0
 29 25  1  0
 30 32  2  0
 30 31  1  0
 31 33  1  1
 31 35  1  0
 34 31  1  0
M  RAD  1  19   2
M  END
$$$$
