-51.73783456
     RDKit          3D

 35 34  0  0  1  0  0  0  0  0999 V2000
    0.2720    0.8113    0.0298 N   0  0  0  0  0  0  0  0  0  0  0  0
   -0.6984    0.4977   -0.1026 H   0  0  0  0  0  0  0  0  0  0  0  0
    1.0249    0.0050    0.9481 C   0  0  1  0  0  0  0  0  0  0  0  0
    1.5881    0.6492    1.6400 H   0  0  0  0  0  0  0  0  0  0  0  0
    0.0367   -0.8567    1.7606 C   0  0  1  0  0  0  0  0  0  0  0  0
    2.0120   -0.9165    0.2127 C   0  0  0  0  0  0  0  0  0  0  0  0
    0.6096   -1.4001    2.5151 H   0  0  0  0  0  0  0  0  0  0  0  0
   -0.6467   -0.1842    2.2824 H   0  0  0  0  0  0  0  0  0  0  0  0
   -0.7750   -1.8573    0.9178 C   0  0  2  0  0  0  0  0  0  0  0  0
    1.8193   -1.3195   -0.9144 O   0  0  0  0  0  0  0  0  0  0  0  0
   -0.8552   -2.7943    1.4708 H   0  0  0  0  0  0  0  0  0  0  0  0
   -0.2443   -2.0704   -0.0115 H   0  0  0  0  0  0  0  0  0  0  0  0
   -2.2027   -1.4057    0.5811 C   0  0  2  0  0  0  0  0  0  0  0  0
   -2.7175   -1.0278    1.4664 H   0  0  0  0  0  0  0  0  0  0  0  0
   -2.7653   -2.2685    0.2040 H   0  0  0  0  0  0  0  0  0  0  0  0
   -2.2040   -0.3255   -0.3822 N   0  0  0  0  0  0  0  0  0  0  0  0
   -1.9723   -0.5880   -1.3311 H   0  0  0  0  0  0  0  0  0  0  0  0
   -3.1197    0.7134   -0.2841 C   0  0  0  0  0  0  0  0  0  0  0  0
   -3.9210    0.7490    0.7003 N   0  0  0  0  0  2  0  0  0  0  0  0
   -3.0123    1.6112   -1.3254 N   0  0  0  0  0  0  0  0  0  0  0  0
   -4.5062    1.5768    0.7267 H   0  0  0  0  0  0  0  0  0  0  0  0
   -3.5169    2.4750   -1.1958 H   0  0  0  0  0  0  0  0  0  0  0  0
   -2.0788    1.7562   -1.7044 H   0  0  0  0  0  0  0  0  0  0  0  0
    3.0952   -1.2511    0.9450 N   0  0  0  0  0  0  0  0  0  0  0  0
    4.1118   -2.1545    0.4610 C   0  0  2  0  0  0  0  0  0  0  0  0
    3.1948   -0.8991    1.8835 H   0  0  0  0  0  0  0  0  0  0  0  0
    3.8392   -2.4356   -0.5548 H   0  0  0  0  0  0  0  0  0  0  0  0
    4.1630   -3.0501    1.0826 H   0  0  0  0  0  0  0  0  0  0  0  0
    5.0877   -1.6664    0.4531 H   0  0  0  0  0  0  0  0  0  0  0  0
    0.6953    1.7178   -0.8652 C   0  0  0  0  0  0  0  0  0  0  0  0
    2.1509    2.1141   -0.8105 C   0  0  1  0  0  0  0  0  0  0  0  0
   -0.0991    2.2083   -1.6546 O   0  0  0  0  0  0  0  0  0  0  0  0
    2.3245    2.9337   -1.5016 H   0  0  0  0  0  0  0  0  0  0  0  0
    2.4252    2.4205    0.1970 H   0  0  0  0  0  0  0  0  0  0  0  0
    2.7661    1.2651   -1.1008 H   0  0  0  0  0  0  0  0  0  0  0  0
  1  3  1  0
  2  1  1  0
  3  4  1  1
  3  5  1  0
  5  8  1  1
  5  7  1  0
  6 24  1  0
  6  3  1  0
  9 11  1  1
  9  5  1  0
 10  6  2  0
 12  9  1  0
 13  9  1  0
 13 14  1  1
 15 13  1  0
 16 18  1  0
 16 13  1  0
 17 16  1  0
 18 19  1  0
 19 21  1  0
 20 22  1  0
 20 18  2  0
 23 20  1  0
 24 26  1  0
 25 24  1  0
 25 28  1  1
 27 25  1  0
 29 25  1  0
 30 31  1  0
 30  1  1  0
 31 34  1  1
 32 30  2  0
 33 31  1  0
 35 31  1  0
M  RAD  1  19   2
M  END
$$$$
