-51.73754156
     RDKit          3D

 35 34  0  0  1  0  0  0  0  0999 V2000
    0.2214   -0.2597   -0.9591 N   0  0  0  0  0  0  0  0  0  0  0  0
   -0.3411   -0.8895   -1.5149 H   0  0  0  0  0  0  0  0  0  0  0  0
    0.5035   -0.6847    0.3951 C   0  0  1  0  0  0  0  0  0  0  0  0
    0.0838    0.0348    1.1100 H   0  0  0  0  0  0  0  0  0  0  0  0
   -0.1017   -2.0653    0.6841 C   0  0  1  0  0  0  0  0  0  0  0  0
    2.0108   -0.7983    0.6779 C   0  0  0  0  0  0  0  0  0  0  0  0
    0.4308   -2.8215    0.0995 H   0  0  0  0  0  0  0  0  0  0  0  0
    0.0855   -2.2700    1.7389 H   0  0  0  0  0  0  0  0  0  0  0  0
   -1.6030   -2.1978    0.4028 C   0  0  2  0  0  0  0  0  0  0  0  0
    2.4583   -0.7656    1.8031 O   0  0  0  0  0  0  0  0  0  0  0  0
   -1.9383   -3.1326    0.8549 H   0  0  0  0  0  0  0  0  0  0  0  0
   -1.7839   -2.2820   -0.6721 H   0  0  0  0  0  0  0  0  0  0  0  0
   -2.4601   -1.0487    0.9475 C   0  0  2  0  0  0  0  0  0  0  0  0
   -2.0566   -0.6689    1.8864 H   0  0  0  0  0  0  0  0  0  0  0  0
   -3.4782   -1.4163    1.1273 H   0  0  0  0  0  0  0  0  0  0  0  0
   -2.4947    0.0643    0.0285 N   0  0  0  0  0  0  0  0  0  0  0  0
   -3.0725   -0.0405   -0.7903 H   0  0  0  0  0  0  0  0  0  0  0  0
   -2.2451    1.3460    0.4289 C   0  0  0  0  0  0  0  0  0  0  0  0
   -1.7199    1.5591    1.5700 N   0  0  0  0  0  2  0  0  0  0  0  0
   -2.6156    2.3090   -0.4976 N   0  0  0  0  0  0  0  0  0  0  0  0
   -1.5646    2.5399    1.7753 H   0  0  0  0  0  0  0  0  0  0  0  0
   -2.2117    3.2210   -0.3442 H   0  0  0  0  0  0  0  0  0  0  0  0
   -2.5809    2.0334   -1.4684 H   0  0  0  0  0  0  0  0  0  0  0  0
    2.7645   -0.9896   -0.4234 N   0  0  0  0  0  0  0  0  0  0  0  0
    4.1976   -1.1373   -0.3752 C   0  0  2  0  0  0  0  0  0  0  0  0
    2.3139   -0.9738   -1.3260 H   0  0  0  0  0  0  0  0  0  0  0  0
    4.5006   -2.0943   -0.8035 H   0  0  0  0  0  0  0  0  0  0  0  0
    4.4930   -1.1001    0.6722 H   0  0  0  0  0  0  0  0  0  0  0  0
    4.6911   -0.3301   -0.9203 H   0  0  0  0  0  0  0  0  0  0  0  0
    0.2346    1.0178   -1.4127 C   0  0  0  0  0  0  0  0  0  0  0  0
    0.9903    2.0105   -0.5679 C   0  0  1  0  0  0  0  0  0  0  0  0
   -0.3077    1.3038   -2.4651 O   0  0  0  0  0  0  0  0  0  0  0  0
    0.4998    2.1202    0.3973 H   0  0  0  0  0  0  0  0  0  0  0  0
    2.0056    1.6665   -0.3885 H   0  0  0  0  0  0  0  0  0  0  0  0
    1.0138    2.9698   -1.0779 H   0  0  0  0  0  0  0  0  0  0  0  0
  1  3  1  0
  2  1  1  0
  3  6  1  0
  3  5  1  0
  3  4  1  1
  5  8  1  1
  6 10  2  0
  7  5  1  0
  9  5  1  0
  9 11  1  1
  9 13  1  0
 12  9  1  0
 13 15  1  1
 13 14  1  0
 16 18  1  0
 16 13  1  0
 17 16  1  0
 18 19  1  0
 19 21  1  0
 20 22  1  0
 20 18  2  0
 23 20  1  0
 24 25  1  0
 24  6  1  0
 25 28  1  1
 26 24  1  0
 27 25  1  0
 29 25  1  0
 30  1  1  0
 30 31  1  0
 31 34  1  1
 31 33  1  0
 32 30  2  0
 35 31  1  0
M  RAD  1  19   2
M  END
$$$$
