-51.73687012
     RDKit          3D

 35 34  0  0  1  0  0  0  0  0999 V2000
    0.5517    1.3460    0.2573 N   0  0  0  0  0  0  0  0  0  0  0  0
   -0.4360    1.3231   -0.0292 H   0  0  0  0  0  0  0  0  0  0  0  0
    0.9751    0.2493    1.0856 C   0  0  1  0  0  0  0  0  0  0  0  0
    2.0013    0.4318    1.4271 H   0  0  0  0  0  0  0  0  0  0  0  0
    0.1090    0.1031    2.3473 C   0  0  1  0  0  0  0  0  0  0  0  0
    1.0574   -1.0825    0.3126 C   0  0  0  0  0  0  0  0  0  0  0  0
    0.4131   -0.8243    2.8365 H   0  0  0  0  0  0  0  0  0  0  0  0
    0.3442    0.9362    3.0128 H   0  0  0  0  0  0  0  0  0  0  0  0
   -1.4028    0.0927    2.1263 C   0  0  2  0  0  0  0  0  0  0  0  0
    1.1001   -2.1563    0.8795 O   0  0  0  0  0  0  0  0  0  0  0  0
   -1.7163    0.9495    1.5337 H   0  0  0  0  0  0  0  0  0  0  0  0
   -1.8745    0.1726    3.1083 H   0  0  0  0  0  0  0  0  0  0  0  0
   -1.9518   -1.1795    1.4824 C   0  0  2  0  0  0  0  0  0  0  0  0
   -3.0417   -1.1895    1.6344 H   0  0  0  0  0  0  0  0  0  0  0  0
   -1.5229   -2.0492    1.9847 H   0  0  0  0  0  0  0  0  0  0  0  0
   -1.6622   -1.3433    0.0714 N   0  0  0  0  0  0  0  0  0  0  0  0
   -1.5358   -2.2975   -0.2237 H   0  0  0  0  0  0  0  0  0  0  0  0
   -1.9747   -0.4560   -0.9100 C   0  0  0  0  0  0  0  0  0  0  0  0
   -2.0884    0.7912   -0.6652 N   0  0  0  0  0  2  0  0  0  0  0  0
   -2.0172   -1.0151   -2.1831 N   0  0  0  0  0  0  0  0  0  0  0  0
   -2.3055    1.3614   -1.4744 H   0  0  0  0  0  0  0  0  0  0  0  0
   -2.3818   -0.4171   -2.9080 H   0  0  0  0  0  0  0  0  0  0  0  0
   -2.2998   -1.9789   -2.2668 H   0  0  0  0  0  0  0  0  0  0  0  0
    1.1860   -0.9377   -1.0190 N   0  0  0  0  0  0  0  0  0  0  0  0
    1.2889   -2.0561   -1.9218 C   0  0  2  0  0  0  0  0  0  0  0  0
    1.0636   -0.0199   -1.4193 H   0  0  0  0  0  0  0  0  0  0  0  0
    1.3455   -2.9609   -1.3182 H   0  0  0  0  0  0  0  0  0  0  0  0
    2.1910   -1.9717   -2.5303 H   0  0  0  0  0  0  0  0  0  0  0  0
    0.4182   -2.1038   -2.5786 H   0  0  0  0  0  0  0  0  0  0  0  0
    1.2982    2.3202   -0.3050 C   0  0  0  0  0  0  0  0  0  0  0  0
    2.7628    2.3852    0.0850 C   0  0  1  0  0  0  0  0  0  0  0  0
    0.8036    3.1029   -1.0943 O   0  0  0  0  0  0  0  0  0  0  0  0
    3.2146    3.2294   -0.4283 H   0  0  0  0  0  0  0  0  0  0  0  0
    2.8639    2.5280    1.1585 H   0  0  0  0  0  0  0  0  0  0  0  0
    3.2815    1.4736   -0.2048 H   0  0  0  0  0  0  0  0  0  0  0  0
  1  3  1  0
  2  1  1  0
  3  4  1  1
  3  5  1  0
  5  7  1  1
  5  8  1  0
  6 10  2  0
  6  3  1  0
  9  5  1  0
  9 12  1  1
 11  9  1  0
 13 14  1  6
 13 15  1  0
 13  9  1  0
 16 13  1  0
 17 16  1  0
 18 19  1  0
 18 16  1  0
 20 18  2  0
 21 19  1  0
 22 20  1  0
 23 20  1  0
 24  6  1  0
 25 27  1  1
 25 24  1  0
 26 24  1  0
 28 25  1  0
 29 25  1  0
 30 31  1  0
 30  1  1  0
 31 34  1  1
 32 30  2  0
 33 31  1  0
 35 31  1  0
M  RAD  1  19   2
M  END
$$$$
