-51.74124731
     RDKit          3D

 35 34  0  0  1  0  0  0  0  0999 V2000
    0.5948    0.8083   -0.0301 N   0  0  0  0  0  0  0  0  0  0  0  0
    0.0221    0.3366   -0.7168 H   0  0  0  0  0  0  0  0  0  0  0  0
    1.2731   -0.0728    0.8851 C   0  0  1  0  0  0  0  0  0  0  0  0
    2.0390    0.4966    1.4160 H   0  0  0  0  0  0  0  0  0  0  0  0
    0.3248   -0.7556    1.9044 C   0  0  1  0  0  0  0  0  0  0  0  0
    1.9991   -1.1648    0.0742 C   0  0  0  0  0  0  0  0  0  0  0  0
    0.0420   -1.7397    1.5290 H   0  0  0  0  0  0  0  0  0  0  0  0
    0.9030   -0.9154    2.8158 H   0  0  0  0  0  0  0  0  0  0  0  0
   -0.9608    0.0058    2.2501 C   0  0  2  0  0  0  0  0  0  0  0  0
    3.1994   -1.3294    0.1570 O   0  0  0  0  0  0  0  0  0  0  0  0
   -0.7986    1.0837    2.2057 H   0  0  0  0  0  0  0  0  0  0  0  0
   -1.2256   -0.2409    3.2795 H   0  0  0  0  0  0  0  0  0  0  0  0
   -2.1730   -0.3561    1.3715 C   0  0  2  0  0  0  0  0  0  0  0  0
   -3.0841   -0.2042    1.9617 H   0  0  0  0  0  0  0  0  0  0  0  0
   -2.1235   -1.4037    1.0701 H   0  0  0  0  0  0  0  0  0  0  0  0
   -2.3008    0.4153    0.1647 N   0  0  0  0  0  0  0  0  0  0  0  0
   -2.5044    1.3973    0.2516 H   0  0  0  0  0  0  0  0  0  0  0  0
   -2.0566   -0.0588   -1.0815 C   0  0  0  0  0  0  0  0  0  0  0  0
   -1.5730   -1.2403   -1.2460 N   0  0  0  0  0  2  0  0  0  0  0  0
   -2.4076    0.8113   -2.0927 N   0  0  0  0  0  0  0  0  0  0  0  0
   -1.5261   -1.5144   -2.2225 H   0  0  0  0  0  0  0  0  0  0  0  0
   -2.0529    0.5818   -3.0087 H   0  0  0  0  0  0  0  0  0  0  0  0
   -2.3267    1.7939   -1.8719 H   0  0  0  0  0  0  0  0  0  0  0  0
    1.1818   -1.8961   -0.6988 N   0  0  0  0  0  0  0  0  0  0  0  0
    1.6781   -2.9634   -1.5323 C   0  0  2  0  0  0  0  0  0  0  0  0
    0.1723   -1.7146   -0.7390 H   0  0  0  0  0  0  0  0  0  0  0  0
    1.1843   -3.9028   -1.2790 H   0  0  0  0  0  0  0  0  0  0  0  0
    2.7494   -3.0564   -1.3603 H   0  0  0  0  0  0  0  0  0  0  0  0
    1.5002   -2.7432   -2.5869 H   0  0  0  0  0  0  0  0  0  0  0  0
    0.4072    2.1410    0.0317 C   0  0  0  0  0  0  0  0  0  0  0  0
    1.2601    2.9167    1.0063 C   0  0  1  0  0  0  0  0  0  0  0  0
   -0.4060    2.6769   -0.7068 O   0  0  0  0  0  0  0  0  0  0  0  0
    2.3122    2.7536    0.7831 H   0  0  0  0  0  0  0  0  0  0  0  0
    1.0318    3.9740    0.9044 H   0  0  0  0  0  0  0  0  0  0  0  0
    1.0681    2.6055    2.0305 H   0  0  0  0  0  0  0  0  0  0  0  0
  1 30  1  0
  1  3  1  0
  2  1  1  0
  3  4  1  1
  3  5  1  0
  5  9  1  0
  5  8  1  1
  6 10  2  0
  6  3  1  0
  7  5  1  0
  9 12  1  1
 11  9  1  0
 13 14  1  1
 13  9  1  0
 15 13  1  0
 16 17  1  0
 16 13  1  0
 18 16  1  0
 19 18  1  0
 20 23  1  0
 20 18  2  0
 21 19  1  0
 22 20  1  0
 24  6  1  0
 25 28  1  6
 25 27  1  0
 25 24  1  0
 26 24  1  0
 29 25  1  0
 30 31  1  0
 31 35  1  1
 32 30  2  0
 33 31  1  0
 34 31  1  0
M  RAD  1  19   2
M  END
$$$$
