-51.74028559
     RDKit          3D

 35 34  0  0  1  0  0  0  0  0999 V2000
    1.6833    1.6217   -0.0441 N   0  0  0  0  0  0  0  0  0  0  0  0
    2.2979    1.7275   -0.8440 H   0  0  0  0  0  0  0  0  0  0  0  0
    0.8144    0.4780   -0.1277 C   0  0  1  0  0  0  0  0  0  0  0  0
    0.4531    0.2092    0.8647 H   0  0  0  0  0  0  0  0  0  0  0  0
   -0.3779    0.7569   -1.0636 C   0  0  1  0  0  0  0  0  0  0  0  0
    1.5964   -0.7193   -0.6962 C   0  0  0  0  0  0  0  0  0  0  0  0
   -0.0031    1.2896   -1.9392 H   0  0  0  0  0  0  0  0  0  0  0  0
   -0.8004   -0.1906   -1.4010 H   0  0  0  0  0  0  0  0  0  0  0  0
   -1.4734    1.5785   -0.3889 C   0  0  2  0  0  0  0  0  0  0  0  0
    2.6236   -0.5853   -1.3294 O   0  0  0  0  0  0  0  0  0  0  0  0
   -2.1671    1.9465   -1.1492 H   0  0  0  0  0  0  0  0  0  0  0  0
   -1.0301    2.4472    0.0991 H   0  0  0  0  0  0  0  0  0  0  0  0
   -2.2640    0.7642    0.6409 C   0  0  2  0  0  0  0  0  0  0  0  0
   -2.9348    1.4335    1.1917 H   0  0  0  0  0  0  0  0  0  0  0  0
   -1.5995    0.2707    1.3497 H   0  0  0  0  0  0  0  0  0  0  0  0
   -3.0628   -0.2794    0.0470 N   0  0  0  0  0  0  0  0  0  0  0  0
   -3.7614    0.0106   -0.6183 H   0  0  0  0  0  0  0  0  0  0  0  0
   -2.7289   -1.5960    0.0623 C   0  0  0  0  0  0  0  0  0  0  0  0
   -1.6687   -2.0115    0.6458 N   0  0  0  0  0  2  0  0  0  0  0  0
   -3.6189   -2.4091   -0.6182 N   0  0  0  0  0  0  0  0  0  0  0  0
   -1.6082   -3.0250    0.6695 H   0  0  0  0  0  0  0  0  0  0  0  0
   -3.5652   -3.3950   -0.4188 H   0  0  0  0  0  0  0  0  0  0  0  0
   -4.5550   -2.0687   -0.7680 H   0  0  0  0  0  0  0  0  0  0  0  0
    1.0025   -1.8900   -0.4231 N   0  0  0  0  0  0  0  0  0  0  0  0
    1.5143   -3.1467   -0.9105 C   0  0  2  0  0  0  0  0  0  0  0  0
    0.1019   -1.8899    0.0635 H   0  0  0  0  0  0  0  0  0  0  0  0
    1.6853   -3.8353   -0.0813 H   0  0  0  0  0  0  0  0  0  0  0  0
    2.4579   -2.9498   -1.4174 H   0  0  0  0  0  0  0  0  0  0  0  0
    0.8161   -3.6041   -1.6155 H   0  0  0  0  0  0  0  0  0  0  0  0
    1.9854    2.4012    1.0181 C   0  0  0  0  0  0  0  0  0  0  0  0
    1.2243    2.1356    2.3031 C   0  0  1  0  0  0  0  0  0  0  0  0
    2.8142    3.2837    0.9275 O   0  0  0  0  0  0  0  0  0  0  0  0
    0.1503    2.1916    2.1478 H   0  0  0  0  0  0  0  0  0  0  0  0
    1.4792    1.1504    2.6882 H   0  0  0  0  0  0  0  0  0  0  0  0
    1.5205    2.8844    3.0323 H   0  0  0  0  0  0  0  0  0  0  0  0
  1 30  1  0
  2  1  1  0
  3  1  1  0
  3  4  1  1
  5  9  1  0
  5  3  1  0
  6 24  1  0
  6  3  1  0
  5  7  1  6
  8  5  1  0
  9 12  1  1
  9 13  1  0
 10  6  2  0
 11  9  1  0
 13 14  1  1
 13 15  1  0
 16 18  1  0
 16 13  1  0
 17 16  1  0
 18 19  1  0
 19 21  1  0
 20 22  1  0
 20 18  2  0
 23 20  1  0
 24 26  1  0
 25 24  1  0
 25 27  1  1
 28 25  1  0
 29 25  1  0
 30 31  1  0
 31 34  1  1
 31 35  1  0
 32 30  2  0
 33 31  1  0
M  RAD  1  19   2
M  END
$$$$
