-51.74021722
     RDKit          3D

 35 34  0  0  1  0  0  0  0  0999 V2000
    0.6411    0.9097   -0.2223 N   0  0  0  0  0  0  0  0  0  0  0  0
   -0.0937    0.4477   -0.7881 H   0  0  0  0  0  0  0  0  0  0  0  0
    1.1620    0.1616    0.8940 C   0  0  1  0  0  0  0  0  0  0  0  0
    2.0003    0.7205    1.3245 H   0  0  0  0  0  0  0  0  0  0  0  0
    0.0993   -0.0137    2.0097 C   0  0  1  0  0  0  0  0  0  0  0  0
    1.7627   -1.1878    0.4731 C   0  0  0  0  0  0  0  0  0  0  0  0
    0.6083   -0.0052    2.9745 H   0  0  0  0  0  0  0  0  0  0  0  0
   -0.5608    0.8556    1.9656 H   0  0  0  0  0  0  0  0  0  0  0  0
   -0.7407   -1.2914    1.9550 C   0  0  2  0  0  0  0  0  0  0  0  0
    2.1815   -1.9762    1.2980 O   0  0  0  0  0  0  0  0  0  0  0  0
   -1.4414   -1.2611    2.7938 H   0  0  0  0  0  0  0  0  0  0  0  0
   -0.0877   -2.1521    2.0990 H   0  0  0  0  0  0  0  0  0  0  0  0
   -1.5236   -1.5015    0.6588 C   0  0  2  0  0  0  0  0  0  0  0  0
   -2.1053   -2.4283    0.7482 H   0  0  0  0  0  0  0  0  0  0  0  0
   -0.8474   -1.6069   -0.1888 H   0  0  0  0  0  0  0  0  0  0  0  0
   -2.4003   -0.3920    0.3551 N   0  0  0  0  0  0  0  0  0  0  0  0
   -3.2316   -0.3062    0.9180 H   0  0  0  0  0  0  0  0  0  0  0  0
   -2.4190    0.1828   -0.8797 C   0  0  0  0  0  0  0  0  0  0  0  0
   -1.4771   -0.0756   -1.7077 N   0  0  0  0  0  2  0  0  0  0  0  0
   -3.4936    1.0095   -1.1336 N   0  0  0  0  0  0  0  0  0  0  0  0
   -1.5457    0.4397   -2.5769 H   0  0  0  0  0  0  0  0  0  0  0  0
   -3.3437    1.6907   -1.8621 H   0  0  0  0  0  0  0  0  0  0  0  0
   -3.9990    1.3716   -0.3401 H   0  0  0  0  0  0  0  0  0  0  0  0
    1.8161   -1.4009   -0.8522 N   0  0  0  0  0  0  0  0  0  0  0  0
    2.3385   -2.6164   -1.4238 C   0  0  2  0  0  0  0  0  0  0  0  0
    1.4408   -0.7046   -1.4780 H   0  0  0  0  0  0  0  0  0  0  0  0
    2.6765   -3.2477   -0.6033 H   0  0  0  0  0  0  0  0  0  0  0  0
    3.1796   -2.4003   -2.0849 H   0  0  0  0  0  0  0  0  0  0  0  0
    1.5642   -3.1379   -1.9893 H   0  0  0  0  0  0  0  0  0  0  0  0
    0.6512    2.2513   -0.3808 C   0  0  0  0  0  0  0  0  0  0  0  0
    1.5814    3.0553    0.5046 C   0  0  1  0  0  0  0  0  0  0  0  0
   -0.0425    2.7752   -1.2346 O   0  0  0  0  0  0  0  0  0  0  0  0
    2.6052    2.7030    0.4004 H   0  0  0  0  0  0  0  0  0  0  0  0
    1.5303    4.0969    0.2002 H   0  0  0  0  0  0  0  0  0  0  0  0
    1.2816    2.9739    1.5471 H   0  0  0  0  0  0  0  0  0  0  0  0
  1  3  1  0
  2  1  1  0
  3  4  1  1
  3  5  1  0
  5  7  1  1
  6  3  1  0
  6 10  2  0
  8  5  1  0
  9  5  1  0
  9 12  1  1
  9 11  1  0
 13 14  1  1
 13  9  1  0
 15 13  1  0
 16 13  1  0
 16 17  1  0
 18 16  1  0
 19 18  1  0
 20 18  2  0
 20 23  1  0
 21 19  1  0
 22 20  1  0
 24  6  1  0
 25 24  1  0
 25 27  1  1
 26 24  1  0
 28 25  1  0
 29 25  1  0
 30  1  1  0
 30 31  1  0
 31 35  1  1
 32 30  2  0
 33 31  1  0
 34 31  1  0
M  RAD  1  19   2
M  END
$$$$
