SCONF/C1/struc.xyz
     RDKit          3D

 26 26  0  0  0  0  0  0  0  0999 V2000
   -2.8490   -0.9950   -0.1110 C   0  0  1  0  0  0  0  0  0  0  0  0
   -1.4920   -0.8040    0.5890 C   0  0  1  0  0  0  0  0  0  0  0  0
   -0.3570   -0.5230   -0.4040 C   0  0  2  0  0  0  0  0  0  0  0  0
    1.0130   -0.2170    0.2400 C   0  0  2  0  0  0  0  0  0  0  0  0
    1.1640    1.3140    0.0560 C   0  0  2  0  0  0  0  0  0  0  0  0
    0.6210    2.0320    1.1500 O   0  0  0  0  0  0  0  0  0  0  0  0
    0.4060    1.5390   -1.2530 C   0  0  1  0  0  0  0  0  0  0  0  0
   -3.3980    0.2610   -0.5010 O   0  0  0  0  0  0  0  0  0  0  0  0
    1.9960   -0.9580   -0.4750 O   0  0  0  0  0  0  0  0  0  0  0  0
   -1.6110    0.2530    1.5510 O   0  0  0  0  0  0  0  0  0  0  0  0
   -0.7110    0.6310   -1.1980 O   0  0  0  0  0  0  0  0  0  0  0  0
    3.2490   -1.0560    0.1900 C   0  0  1  0  0  0  0  0  0  0  0  0
   -2.7420   -1.6750   -0.9670 H   0  0  0  0  0  0  0  0  0  0  0  0
   -3.5680   -1.4320    0.5880 H   0  0  0  0  0  0  0  0  0  0  0  0
   -1.2390   -1.7220    1.1360 H   0  0  0  0  0  0  0  0  0  0  0  0
   -0.2360   -1.3930   -1.0640 H   0  0  0  0  0  0  0  0  0  0  0  0
    1.0430   -0.4800    1.3060 H   0  0  0  0  0  0  0  0  0  0  0  0
    2.2130    1.6110   -0.0300 H   0  0  0  0  0  0  0  0  0  0  0  0
   -0.1870    1.5710    1.4470 H   0  0  0  0  0  0  0  0  0  0  0  0
    0.0150    2.5540   -1.3430 H   0  0  0  0  0  0  0  0  0  0  0  0
    1.0360    1.2990   -2.1200 H   0  0  0  0  0  0  0  0  0  0  0  0
   -2.7540    0.6790   -1.1000 H   0  0  0  0  0  0  0  0  0  0  0  0
   -2.3630    0.7960    1.2530 H   0  0  0  0  0  0  0  0  0  0  0  0
    3.7240   -0.0760    0.3290 H   0  0  0  0  0  0  0  0  0  0  0  0
    3.1370   -1.5370    1.1720 H   0  0  0  0  0  0  0  0  0  0  0  0
    3.8900   -1.6740   -0.4420 H   0  0  0  0  0  0  0  0  0  0  0  0
  1 13  1  6
  1  8  1  0
  1 14  1  0
  1  2  1  0
  2  3  1  0
  2 15  1  1
  2 10  1  0
  3 11  1  0
  3 16  1  6
  3  4  1  0
  4  9  1  0
  4  5  1  0
  4 17  1  1
  5  7  1  0
  5 18  1  6
  5  6  1  0
  6 19  1  0
  7 21  1  6
  7 20  1  0
  7 11  1  0
  8 22  1  0
  9 12  1  0
 10 23  1  0
 12 26  1  6
 12 24  1  0
 12 25  1  0
M  END
$$$$
