SCONF/C2/struc.xyz
     RDKit          3D

 26 26  0  0  0  0  0  0  0  0999 V2000
   -2.5840   -1.0510   -0.1010 C   0  0  1  0  0  0  0  0  0  0  0  0
   -1.2910   -0.6770    0.6440 C   0  0  1  0  0  0  0  0  0  0  0  0
   -0.1340   -0.3620   -0.3160 C   0  0  2  0  0  0  0  0  0  0  0  0
    1.1790    0.1320    0.3470 C   0  0  2  0  0  0  0  0  0  0  0  0
    1.1680    1.6510    0.0770 C   0  0  2  0  0  0  0  0  0  0  0  0
    0.4970    2.3690    1.0970 O   0  0  0  0  0  0  0  0  0  0  0  0
    0.4570    1.7150   -1.2760 C   0  0  1  0  0  0  0  0  0  0  0  0
   -3.2240    0.1140   -0.6160 O   0  0  0  0  0  0  0  0  0  0  0  0
    2.3280   -0.4140   -0.2930 O   0  0  0  0  0  0  0  0  0  0  0  0
   -1.5630    0.4300    1.5140 O   0  0  0  0  0  0  0  0  0  0  0  0
   -0.5500    0.6820   -1.2230 O   0  0  0  0  0  0  0  0  0  0  0  0
    2.6690   -1.7230    0.1360 C   0  0  1  0  0  0  0  0  0  0  0  0
   -2.3680   -1.7790   -0.8950 H   0  0  0  0  0  0  0  0  0  0  0  0
   -3.2970   -1.5010    0.5950 H   0  0  0  0  0  0  0  0  0  0  0  0
   -0.9840   -1.5220    1.2740 H   0  0  0  0  0  0  0  0  0  0  0  0
    0.0800   -1.2680   -0.9020 H   0  0  0  0  0  0  0  0  0  0  0  0
    1.2110   -0.0730    1.4250 H   0  0  0  0  0  0  0  0  0  0  0  0
    2.1880    2.0360    0.0240 H   0  0  0  0  0  0  0  0  0  0  0  0
   -0.2800    1.8510    1.3810 H   0  0  0  0  0  0  0  0  0  0  0  0
   -0.0460    2.6710   -1.4400 H   0  0  0  0  0  0  0  0  0  0  0  0
    1.1530    1.5090   -2.0990 H   0  0  0  0  0  0  0  0  0  0  0  0
   -2.5870    0.5460   -1.2130 H   0  0  0  0  0  0  0  0  0  0  0  0
   -2.3460    0.8720    1.1410 H   0  0  0  0  0  0  0  0  0  0  0  0
    2.8560   -1.7480    1.2190 H   0  0  0  0  0  0  0  0  0  0  0  0
    1.8870   -2.4570   -0.1060 H   0  0  0  0  0  0  0  0  0  0  0  0
    3.5830   -2.0000   -0.3930 H   0  0  0  0  0  0  0  0  0  0  0  0
  1 13  1  6
  1  8  1  0
  1 14  1  0
  1  2  1  0
  2  3  1  0
  2 15  1  1
  2 10  1  0
  3 11  1  0
  3 16  1  6
  3  4  1  0
  4  9  1  0
  4  5  1  0
  4 17  1  1
  5  7  1  0
  5 18  1  6
  5  6  1  0
  6 19  1  0
  7 21  1  6
  7 20  1  0
  7 11  1  0
  8 22  1  0
  9 12  1  0
 10 23  1  0
 12 26  1  6
 12 25  1  0
 12 24  1  0
M  END
$$$$
