SCONF/C14/struc.xyz
     RDKit          3D

 26 26  0  0  0  0  0  0  0  0999 V2000
    2.4570    0.8570    0.6740 C   0  0  2  0  0  0  0  0  0  0  0  0
    1.7340   -0.4780    0.4800 C   0  0  1  0  0  0  0  0  0  0  0  0
    0.5960   -0.4100   -0.5500 C   0  0  2  0  0  0  0  0  0  0  0  0
   -0.6800    0.2880   -0.0370 C   0  0  2  0  0  0  0  0  0  0  0  0
   -1.7920   -0.7570   -0.2490 C   0  0  2  0  0  0  0  0  0  0  0  0
   -2.7680   -0.6530    0.7850 O   0  0  0  0  0  0  0  0  0  0  0  0
   -1.0110   -2.0770   -0.2450 C   0  0  2  0  0  0  0  0  0  0  0  0
    3.1400    1.2650   -0.5020 O   0  0  0  0  0  0  0  0  0  0  0  0
   -0.8540    1.5010   -0.7430 O   0  0  0  0  0  0  0  0  0  0  0  0
    2.7250   -1.4100    0.0470 O   0  0  0  0  0  0  0  0  0  0  0  0
    0.2150   -1.7640   -0.9090 O   0  0  0  0  0  0  0  0  0  0  0  0
   -1.8450    2.3660   -0.1970 C   0  0  1  0  0  0  0  0  0  0  0  0
    3.1570    0.7530    1.5170 H   0  0  0  0  0  0  0  0  0  0  0  0
    1.7440    1.6500    0.9170 H   0  0  0  0  0  0  0  0  0  0  0  0
    1.3240   -0.7990    1.4530 H   0  0  0  0  0  0  0  0  0  0  0  0
    0.9520    0.0790   -1.4600 H   0  0  0  0  0  0  0  0  0  0  0  0
   -0.6180    0.4940    1.0450 H   0  0  0  0  0  0  0  0  0  0  0  0
   -2.2440   -0.5840   -1.2360 H   0  0  0  0  0  0  0  0  0  0  0  0
   -3.5330   -1.1990    0.5630 H   0  0  0  0  0  0  0  0  0  0  0  0
   -1.4930   -2.8860   -0.8000 H   0  0  0  0  0  0  0  0  0  0  0  0
   -0.8430   -2.4050    0.7930 H   0  0  0  0  0  0  0  0  0  0  0  0
    3.6690    0.5060   -0.7910 H   0  0  0  0  0  0  0  0  0  0  0  0
    2.2550   -2.1490   -0.3690 H   0  0  0  0  0  0  0  0  0  0  0  0
   -2.8490    1.9290   -0.2550 H   0  0  0  0  0  0  0  0  0  0  0  0
   -1.6260    2.6020    0.8550 H   0  0  0  0  0  0  0  0  0  0  0  0
   -1.8110    3.2840   -0.7870 H   0  0  0  0  0  0  0  0  0  0  0  0
  1  8  1  0
  1  2  1  0
  1 14  1  1
  1 13  1  0
  2  3  1  0
  2 10  1  0
  2 15  1  1
  3 16  1  6
  3 11  1  0
  3  4  1  0
  4  9  1  0
  4  5  1  0
  4 17  1  1
  5 18  1  6
  5  7  1  0
  5  6  1  0
  6 19  1  0
  7 11  1  0
  7 20  1  6
  7 21  1  0
  8 22  1  0
  9 12  1  0
 10 23  1  0
 12 26  1  6
 12 24  1  0
 12 25  1  0
M  END
$$$$
