 energy: -42.469578402281 gnorm: 0.000047028215 xtb: 6.5.1 (9af7eec)
     RDKit          3D

 31 30  0  0  0  0  0  0  0  0999 V2000
   -0.5278   -0.3237   -1.4942 N   0  0  0  0  0  0  0  0  0  0  0  0
   -0.5126    0.7525   -0.5197 C   0  0  2  0  0  0  0  0  0  0  0  0
   -1.8479    1.5314   -0.5597 C   0  0  0  0  0  0  0  0  0  0  0  0
   -1.9452    2.6834   -0.9309 O   0  0  0  0  0  0  0  0  0  0  0  0
    0.7060    1.6677   -0.7116 C   0  0  2  0  0  0  0  0  0  0  0  0
    0.8260    2.1908   -2.1506 C   0  0  2  0  0  0  0  0  0  0  0  0
    1.9743    0.9382   -0.2734 C   0  0  1  0  0  0  0  0  0  0  0  0
    1.6486    3.4722   -2.2296 C   0  0  2  0  0  0  0  0  0  0  0  0
   -0.1396   -0.1180   -2.4002 H   0  0  0  0  0  0  0  0  0  0  0  0
   -0.4548    0.2771    0.4687 H   0  0  0  0  0  0  0  0  0  0  0  0
    0.5443    2.5300   -0.0577 H   0  0  0  0  0  0  0  0  0  0  0  0
   -0.1730    2.4059   -2.5309 H   0  0  0  0  0  0  0  0  0  0  0  0
    1.2929    1.4336   -2.7876 H   0  0  0  0  0  0  0  0  0  0  0  0
    2.8457    1.5738   -0.4030 H   0  0  0  0  0  0  0  0  0  0  0  0
    1.9130    0.6569    0.7754 H   0  0  0  0  0  0  0  0  0  0  0  0
    2.1182    0.0335   -0.8615 H   0  0  0  0  0  0  0  0  0  0  0  0
    1.1768    4.2544   -1.6408 H   0  0  0  0  0  0  0  0  0  0  0  0
    1.7145    3.8127   -3.2605 H   0  0  0  0  0  0  0  0  0  0  0  0
    2.6589    3.3187   -1.8577 H   0  0  0  0  0  0  0  0  0  0  0  0
   -2.8771    0.7868   -0.1265 N   0  0  0  0  0  0  0  0  0  0  0  0
   -2.7067   -0.1788    0.1371 H   0  0  0  0  0  0  0  0  0  0  0  0
   -4.2332    1.2759   -0.0963 C   0  0  1  0  0  0  0  0  0  0  0  0
   -4.6367    1.2134    0.9155 H   0  0  0  0  0  0  0  0  0  0  0  0
   -4.2200    2.3163   -0.4181 H   0  0  0  0  0  0  0  0  0  0  0  0
   -4.8686    0.6957   -0.7685 H   0  0  0  0  0  0  0  0  0  0  0  0
   -1.0775   -1.5296   -1.2579 C   0  0  0  0  0  0  0  0  0  0  0  0
   -1.6568   -1.7932   -0.2176 O   0  0  0  0  0  0  0  0  0  0  0  0
   -0.9147   -2.5160   -2.3921 C   0  0  2  0  0  0  0  0  0  0  0  0
    0.1377   -2.6429   -2.6357 H   0  0  0  0  0  0  0  0  0  0  0  0
   -1.4373   -2.1538   -3.2752 H   0  0  0  0  0  0  0  0  0  0  0  0
   -1.3342   -3.4733   -2.0974 H   0  0  0  0  0  0  0  0  0  0  0  0
  1  2  1  0
  1 26  1  0
  1  9  1  0
  2 10  1  1
  2  5  1  0
  2  3  1  0
  3 20  1  0
  3  4  1  0
  5  7  1  0
  5  6  1  0
  5 11  1  1
  6 13  1  6
  6  8  1  0
  6 12  1  0
  7 15  1  1
  7 16  1  0
  7 14  1  0
  8 19  1  1
  8 18  1  0
  8 17  1  0
 20 21  1  0
 20 22  1  0
 22 23  1  1
 22 24  1  0
 22 25  1  0
 26 27  1  0
 26 28  1  0
 28 30  1  6
 28 29  1  0
 28 31  1  0
M  END
$$$$
