 energy: -42.468682076890 gnorm: 0.000036148527 xtb: 6.5.1 (9af7eec)
     RDKit          3D

 31 30  0  0  0  0  0  0  0  0999 V2000
   -0.8785   -0.6470   -0.0988 N   0  0  0  0  0  0  0  0  0  0  0  0
   -0.3156    0.6299    0.2654 C   0  0  2  0  0  0  0  0  0  0  0  0
   -0.9642    1.0799    1.5757 C   0  0  0  0  0  0  0  0  0  0  0  0
   -2.0252    0.6268    1.9585 O   0  0  0  0  0  0  0  0  0  0  0  0
   -0.5354    1.6962   -0.8366 C   0  0  2  0  0  0  0  0  0  0  0  0
   -2.0257    1.8268   -1.1749 C   0  0  2  0  0  0  0  0  0  0  0  0
    0.2962    1.3369   -2.0646 C   0  0  1  0  0  0  0  0  0  0  0  0
   -2.3465    3.1015   -1.9469 C   0  0  2  0  0  0  0  0  0  0  0  0
   -1.8430   -0.7712    0.1774 H   0  0  0  0  0  0  0  0  0  0  0  0
    0.7615    0.4774    0.4052 H   0  0  0  0  0  0  0  0  0  0  0  0
   -0.1842    2.6563   -0.4398 H   0  0  0  0  0  0  0  0  0  0  0  0
   -2.6041    1.8254   -0.2489 H   0  0  0  0  0  0  0  0  0  0  0  0
   -2.3346    0.9607   -1.7629 H   0  0  0  0  0  0  0  0  0  0  0  0
    0.1920    2.0947   -2.8361 H   0  0  0  0  0  0  0  0  0  0  0  0
    1.3483    1.2544   -1.8032 H   0  0  0  0  0  0  0  0  0  0  0  0
   -0.0240    0.3802   -2.4692 H   0  0  0  0  0  0  0  0  0  0  0  0
   -2.0403    3.9793   -1.3814 H   0  0  0  0  0  0  0  0  0  0  0  0
   -3.4166    3.1693   -2.1278 H   0  0  0  0  0  0  0  0  0  0  0  0
   -1.8398    3.1179   -2.9082 H   0  0  0  0  0  0  0  0  0  0  0  0
   -0.2749    2.0271    2.2384 N   0  0  0  0  0  0  0  0  0  0  0  0
    0.6150    2.3336    1.8794 H   0  0  0  0  0  0  0  0  0  0  0  0
   -0.7342    2.6047    3.4786 C   0  0  1  0  0  0  0  0  0  0  0  0
   -0.8609    3.6840    3.3768 H   0  0  0  0  0  0  0  0  0  0  0  0
   -1.6939    2.1480    3.7143 H   0  0  0  0  0  0  0  0  0  0  0  0
   -0.0286    2.4004    4.2856 H   0  0  0  0  0  0  0  0  0  0  0  0
   -0.1075   -1.7249   -0.3757 C   0  0  0  0  0  0  0  0  0  0  0  0
    1.0966   -1.6551   -0.5058 O   0  0  0  0  0  0  0  0  0  0  0  0
   -0.9002   -3.0044   -0.5403 C   0  0  2  0  0  0  0  0  0  0  0  0
   -0.2352   -3.8027   -0.8559 H   0  0  0  0  0  0  0  0  0  0  0  0
   -1.6842   -2.8692   -1.2815 H   0  0  0  0  0  0  0  0  0  0  0  0
   -1.3596   -3.2745    0.4081 H   0  0  0  0  0  0  0  0  0  0  0  0
  1  2  1  0
  1 26  1  0
  1  9  1  0
  2 10  1  1
  2  5  1  0
  2  3  1  0
  3 20  1  0
  3  4  1  0
  5  7  1  0
  5  6  1  0
  5 11  1  1
  6 13  1  6
  6  8  1  0
  6 12  1  0
  7 15  1  1
  7 16  1  0
  7 14  1  0
  8 19  1  6
  8 18  1  0
  8 17  1  0
 20 21  1  0
 20 22  1  0
 22 23  1  6
 22 24  1  0
 22 25  1  0
 26 27  1  0
 26 28  1  0
 28 30  1  6
 28 29  1  0
 28 31  1  0
M  END
$$$$
