-21.77959726
     RDKit          3D

 16 15  0  0  0  0  0  0  0  0999 V2000
   -1.9597   -0.3949    0.1599 C   0  0  1  0  0  0  0  0  0  0  0  0
   -2.6039   -0.4863    1.0378 H   0  0  0  0  0  0  0  0  0  0  0  0
   -2.3854    0.7780   -0.4881 O   0  0  0  0  0  0  0  0  0  0  0  0
   -0.4925   -0.3497    0.5981 C   0  0  1  0  0  0  0  0  0  0  0  0
   -0.3412    0.5635    1.1784 H   0  0  0  0  0  0  0  0  0  0  0  0
   -0.3042   -1.2077    1.2475 H   0  0  0  0  0  0  0  0  0  0  0  0
    0.4725   -0.3886   -0.5885 C   0  0  2  0  0  0  0  0  0  0  0  0
    0.3698    0.5182   -1.1892 H   0  0  0  0  0  0  0  0  0  0  0  0
    0.2385   -1.2497   -1.2186 H   0  0  0  0  0  0  0  0  0  0  0  0
   -1.8471    0.9101   -1.2761 H   0  0  0  0  0  0  0  0  0  0  0  0
   -2.1244   -1.2725   -0.4831 H   0  0  0  0  0  0  0  0  0  0  0  0
    1.9356   -0.5014   -0.1483 C   0  0  1  0  0  0  0  0  0  0  0  0
    2.0534   -1.3696    0.5175 H   0  0  0  0  0  0  0  0  0  0  0  0
    2.5733   -0.6503   -1.0230 H   0  0  0  0  0  0  0  0  0  0  0  0
    2.4242    0.6633    0.4693 O   0  0  0  0  0  0  0  0  0  0  0  0
    1.8944    0.8446    1.2533 H   0  0  0  0  0  0  0  0  0  0  0  0
  1  4  1  0
  1  2  1  1
  3  1  1  0
  4  5  1  1
  4  6  1  0
  7 12  1  0
  7  4  1  0
  7  8  1  6
  9  7  1  0
 10  3  1  0
 11  1  1  0
 12 15  1  0
 12 13  1  1
 14 12  1  0
 15 16  1  0
M  END
$$$$
