-21.77944813
     RDKit          3D

 16 15  0  0  0  0  0  0  0  0999 V2000
   -1.9021   -0.0536   -0.4569 C   0  0  1  0  0  0  0  0  0  0  0  0
   -2.5305   -0.8821   -0.7926 H   0  0  0  0  0  0  0  0  0  0  0  0
   -2.5583    0.4704    0.6711 O   0  0  0  0  0  0  0  0  0  0  0  0
   -0.4892   -0.5660   -0.1582 C   0  0  1  0  0  0  0  0  0  0  0  0
   -0.5398   -1.2548    0.6883 H   0  0  0  0  0  0  0  0  0  0  0  0
   -0.1473   -1.1206   -1.0349 H   0  0  0  0  0  0  0  0  0  0  0  0
    0.4894    0.5663    0.1578 C   0  0  2  0  0  0  0  0  0  0  0  0
    0.1473    1.1211    1.0344 H   0  0  0  0  0  0  0  0  0  0  0  0
    0.5400    1.2550   -0.6889 H   0  0  0  0  0  0  0  0  0  0  0  0
   -2.0545    1.2214    1.0027 H   0  0  0  0  0  0  0  0  0  0  0  0
   -1.8592    0.6962   -1.2608 H   0  0  0  0  0  0  0  0  0  0  0  0
    1.9021    0.0540    0.4568 C   0  0  1  0  0  0  0  0  0  0  0  0
    2.5305    0.8827    0.7918 H   0  0  0  0  0  0  0  0  0  0  0  0
    1.8589   -0.6951    1.2613 H   0  0  0  0  0  0  0  0  0  0  0  0
    2.5582   -0.4710   -0.6707 O   0  0  0  0  0  0  0  0  0  0  0  0
    2.0547   -1.2228   -1.0014 H   0  0  0  0  0  0  0  0  0  0  0  0
  1  4  1  0
  1  3  1  0
  1  2  1  6
  3 10  1  0
  4  7  1  0
  4  5  1  1
  6  4  1  0
  7 12  1  0
  7  8  1  1
  9  7  1  0
 11  1  1  0
 12 13  1  1
 12 14  1  0
 15 12  1  0
 16 15  1  0
M  END
$$$$
