-21.77714860
     RDKit          3D

 16 15  0  0  0  0  0  0  0  0999 V2000
   -1.9545   -0.3367    0.2304 C   0  0  1  0  0  0  0  0  0  0  0  0
   -2.0211   -0.5327    1.3114 H   0  0  0  0  0  0  0  0  0  0  0  0
   -1.9173    1.0476   -0.0139 O   0  0  0  0  0  0  0  0  0  0  0  0
   -0.7706   -1.1140   -0.3555 C   0  0  1  0  0  0  0  0  0  0  0  0
   -0.9872   -2.1747   -0.2207 H   0  0  0  0  0  0  0  0  0  0  0  0
   -0.7130   -0.9162   -1.4268 H   0  0  0  0  0  0  0  0  0  0  0  0
    0.5756   -0.7832    0.3003 C   0  0  2  0  0  0  0  0  0  0  0  0
    1.2127   -1.6701    0.2936 H   0  0  0  0  0  0  0  0  0  0  0  0
    0.4190   -0.5050    1.3483 H   0  0  0  0  0  0  0  0  0  0  0  0
   -1.1476    1.4198    0.4296 H   0  0  0  0  0  0  0  0  0  0  0  0
   -2.8800   -0.6834   -0.2361 H   0  0  0  0  0  0  0  0  0  0  0  0
    1.3410    0.3330   -0.4177 C   0  0  1  0  0  0  0  0  0  0  0  0
    1.5409    0.0383   -1.4506 H   0  0  0  0  0  0  0  0  0  0  0  0
    0.7556    1.2638   -0.4388 H   0  0  0  0  0  0  0  0  0  0  0  0
    2.6076    0.5670    0.1522 O   0  0  0  0  0  0  0  0  0  0  0  0
    2.4981    0.7859    1.0844 H   0  0  0  0  0  0  0  0  0  0  0  0
  1  2  1  1
  3  1  1  0
  3 10  1  0
  4  5  1  6
  4  1  1  0
  4  7  1  0
  6  4  1  0
  7  9  1  1
  8  7  1  0
 11  1  1  0
 12 15  1  0
 12  7  1  0
 12 13  1  6
 14 12  1  0
 15 16  1  0
M  END
$$$$
