-21.77697307
     RDKit          3D

 16 15  0  0  0  0  0  0  0  0999 V2000
   -1.7230   -0.0791    0.6031 C   0  0  1  0  0  0  0  0  0  0  0  0
   -1.2340    0.4692    1.4212 H   0  0  0  0  0  0  0  0  0  0  0  0
   -2.2345    0.8169   -0.3520 O   0  0  0  0  0  0  0  0  0  0  0  0
   -0.7595   -1.1153    0.0137 C   0  0  1  0  0  0  0  0  0  0  0  0
   -0.5071   -1.8314    0.7978 H   0  0  0  0  0  0  0  0  0  0  0  0
   -1.2824   -1.6513   -0.7806 H   0  0  0  0  0  0  0  0  0  0  0  0
    0.5236   -0.5203   -0.5668 C   0  0  2  0  0  0  0  0  0  0  0  0
    0.2949    0.2238   -1.3327 H   0  0  0  0  0  0  0  0  0  0  0  0
    1.0941   -1.3120   -1.0555 H   0  0  0  0  0  0  0  0  0  0  0  0
   -1.4954    1.2687   -0.7745 H   0  0  0  0  0  0  0  0  0  0  0  0
   -2.5969   -0.5906    1.0143 H   0  0  0  0  0  0  0  0  0  0  0  0
    1.4333    0.1189    0.4792 C   0  0  1  0  0  0  0  0  0  0  0  0
    0.9470    0.9911    0.9392 H   0  0  0  0  0  0  0  0  0  0  0  0
    1.6511   -0.6109    1.2730 H   0  0  0  0  0  0  0  0  0  0  0  0
    2.6230    0.5161   -0.1699 O   0  0  0  0  0  0  0  0  0  0  0  0
    3.2246    0.9004    0.4754 H   0  0  0  0  0  0  0  0  0  0  0  0
  1 11  1  1
  1  2  1  0
  3  1  1  0
  4  1  1  0
  4  5  1  1
  6  4  1  0
  7  4  1  0
  7 12  1  0
  7  8  1  6
  9  7  1  0
 10  3  1  0
 12 13  1  1
 12 14  1  0
 15 16  1  0
 15 12  1  0
M  END
$$$$
