-21.78137685
     RDKit          3D

 16 15  0  0  0  0  0  0  0  0999 V2000
   -1.5741   -0.1379    0.3423 C   0  0  1  0  0  0  0  0  0  0  0  0
   -1.3831   -0.3484    1.4069 H   0  0  0  0  0  0  0  0  0  0  0  0
   -1.4181    1.2319    0.0718 O   0  0  0  0  0  0  0  0  0  0  0  0
   -0.6833   -1.0307   -0.5297 C   0  0  1  0  0  0  0  0  0  0  0  0
   -1.1807   -1.9878   -0.6944 H   0  0  0  0  0  0  0  0  0  0  0  0
   -0.5755   -0.5432   -1.5015 H   0  0  0  0  0  0  0  0  0  0  0  0
    0.6987   -1.3123    0.0733 C   0  0  2  0  0  0  0  0  0  0  0  0
    1.3001   -1.8398   -0.6728 H   0  0  0  0  0  0  0  0  0  0  0  0
    0.5934   -1.9695    0.9383 H   0  0  0  0  0  0  0  0  0  0  0  0
   -0.4734    1.4209   -0.0341 H   0  0  0  0  0  0  0  0  0  0  0  0
   -2.6272   -0.3552    0.1419 H   0  0  0  0  0  0  0  0  0  0  0  0
    1.4481   -0.0568    0.5329 C   0  0  1  0  0  0  0  0  0  0  0  0
    0.9771    0.3663    1.4230 H   0  0  0  0  0  0  0  0  0  0  0  0
    2.4807   -0.3277    0.7948 H   0  0  0  0  0  0  0  0  0  0  0  0
    1.4418    0.9835   -0.4216 O   0  0  0  0  0  0  0  0  0  0  0  0
    1.8300    0.6582   -1.2413 H   0  0  0  0  0  0  0  0  0  0  0  0
  1  2  1  1
  3  1  1  0
  4  7  1  0
  4  1  1  0
  4  5  1  6
  6  4  1  0
  7 12  1  0
  7  9  1  1
  8  7  1  0
 10  3  1  0
 11  1  1  0
 12 14  1  1
 12 13  1  0
 15 12  1  0
 16 15  1  0
M  END
$$$$
