-21.78034818
     RDKit          3D

 16 15  0  0  0  0  0  0  0  0999 V2000
   -1.5559    0.4446    0.4468 C   0  0  1  0  0  0  0  0  0  0  0  0
   -1.0764    1.4205    0.3544 H   0  0  0  0  0  0  0  0  0  0  0  0
   -2.3513    0.3092   -0.7083 O   0  0  0  0  0  0  0  0  0  0  0  0
   -0.5052   -0.6598    0.5758 C   0  0  1  0  0  0  0  0  0  0  0  0
    0.0460   -0.5159    1.5064 H   0  0  0  0  0  0  0  0  0  0  0  0
   -1.0162   -1.6257    0.6277 H   0  0  0  0  0  0  0  0  0  0  0  0
    0.4748   -0.6616   -0.5996 C   0  0  2  0  0  0  0  0  0  0  0  0
   -0.0682   -0.4594   -1.5241 H   0  0  0  0  0  0  0  0  0  0  0  0
    0.9406   -1.6477   -0.6861 H   0  0  0  0  0  0  0  0  0  0  0  0
   -2.7758   -0.5560   -0.6890 H   0  0  0  0  0  0  0  0  0  0  0  0
   -2.1878    0.4547    1.3472 H   0  0  0  0  0  0  0  0  0  0  0  0
    1.5754    0.3876   -0.4321 C   0  0  1  0  0  0  0  0  0  0  0  0
    2.2083    0.4001   -1.3318 H   0  0  0  0  0  0  0  0  0  0  0  0
    1.1416    1.3809   -0.3053 H   0  0  0  0  0  0  0  0  0  0  0  0
    2.3621    0.1749    0.7173 O   0  0  0  0  0  0  0  0  0  0  0  0
    2.7462   -0.7077    0.6674 H   0  0  0  0  0  0  0  0  0  0  0  0
  1  4  1  0
  1 11  1  1
  2  1  1  0
  3 10  1  0
  3  1  1  0
  4  6  1  1
  4  5  1  0
  7 12  1  0
  7  4  1  0
  7  8  1  6
  9  7  1  0
 12 14  1  1
 12 15  1  0
 13 12  1  0
 16 15  1  0
M  END
$$$$
