-21.78034299
     RDKit          3D

 16 15  0  0  0  0  0  0  0  0999 V2000
   -1.6147   -0.1802   -0.3040 C   0  0  1  0  0  0  0  0  0  0  0  0
   -2.6500   -0.3657    0.0155 H   0  0  0  0  0  0  0  0  0  0  0  0
   -1.2895    1.1813   -0.0846 O   0  0  0  0  0  0  0  0  0  0  0  0
   -0.6660   -1.0545    0.5138 C   0  0  1  0  0  0  0  0  0  0  0  0
   -0.5313   -0.5799    1.4874 H   0  0  0  0  0  0  0  0  0  0  0  0
   -1.1381   -2.0250    0.6752 H   0  0  0  0  0  0  0  0  0  0  0  0
    0.7002   -1.2810   -0.1395 C   0  0  2  0  0  0  0  0  0  0  0  0
    0.5830   -1.8811   -1.0444 H   0  0  0  0  0  0  0  0  0  0  0  0
    1.3186   -1.8424    0.5630 H   0  0  0  0  0  0  0  0  0  0  0  0
   -1.8588    1.7388   -0.6233 H   0  0  0  0  0  0  0  0  0  0  0  0
   -1.5337   -0.4285   -1.3714 H   0  0  0  0  0  0  0  0  0  0  0  0
    1.4319    0.0158   -0.5180 C   0  0  1  0  0  0  0  0  0  0  0  0
    2.4621   -0.2233   -0.7963 H   0  0  0  0  0  0  0  0  0  0  0  0
    0.9424    0.4739   -1.3889 H   0  0  0  0  0  0  0  0  0  0  0  0
    1.5139    0.9393    0.5337 O   0  0  0  0  0  0  0  0  0  0  0  0
    0.6150    1.2626    0.6890 H   0  0  0  0  0  0  0  0  0  0  0  0
  1  3  1  0
  1  2  1  1
  1  4  1  0
  4  6  1  1
  4  5  1  0
  7  4  1  0
  7  9  1  1
  8  7  1  0
 10  3  1  0
 11  1  1  0
 12  7  1  0
 12 15  1  0
 12 13  1  6
 14 12  1  0
 15 16  1  0
M  END
$$$$
