-74.39444456
     RDKit          3D

 37 39  0  0  1  0  0  0  0  0999 V2000
    1.5068    1.0339    1.5025 C   0  0  0  0  0  0  0  0  0  0  0  0
    2.7876    1.1336    1.6610 N   0  0  0  0  0  0  0  0  0  0  0  0
    3.3403    0.4861    0.5894 C   0  0  0  0  0  0  0  0  0  0  0  0
    2.3205   -0.0123   -0.2238 C   0  0  0  0  0  0  0  0  0  0  0  0
    1.1498    0.3448    0.3705 N   0  0  0  0  0  0  0  0  0  0  0  0
   -0.1697    0.0441   -0.1478 C   0  0  2  0  0  0  0  0  0  0  0  0
   -0.4745    0.8623   -1.4154 C   0  0  2  0  0  0  0  0  0  0  0  0
   -1.7256    1.6921   -1.0684 C   0  0  2  0  0  0  0  0  0  0  0  0
   -1.7736    1.5847    0.4798 C   0  0  2  0  0  0  0  0  0  0  0  0
   -1.1413    0.3587    0.8166 O   0  0  0  0  0  0  0  0  0  0  0  0
   -3.1678    1.5898    1.1004 C   0  0  2  0  0  0  0  0  0  0  0  0
   -3.9275    0.4308    0.8679 O   0  0  0  0  0  0  0  0  0  0  0  0
   -3.4161   -1.0647    0.5710 P   0  0  1  0  0  0  0  0  0  0  0  0
   -2.7187   -1.3158   -0.6905 O   0  0  0  0  0  0  0  0  0  0  0  0
   -2.7220   -1.5966    1.9098 O   0  0  0  0  0  0  0  0  0  0  0  0
   -4.8074   -1.7947    0.6260 O   0  0  0  0  0  0  0  0  0  0  0  0
   -2.8764    1.2599   -1.7117 O   0  0  0  0  0  0  0  0  0  0  0  0
    2.4539   -0.7147   -1.3703 N   0  0  0  0  0  0  0  0  0  0  0  0
    3.6945   -0.9178   -1.7147 C   0  0  0  0  0  0  0  0  0  0  0  0
    4.7599   -0.4757   -0.9891 N   0  0  0  0  0  0  0  0  0  0  0  0
    4.7087    0.2682    0.2194 C   0  0  0  0  0  0  0  0  0  0  0  0
    5.7436    0.5980    0.7462 O   0  0  0  0  0  0  0  0  0  0  0  0
    3.9508   -1.5577   -2.8831 N   0  0  0  0  0  0  0  0  0  0  0  0
    0.7796    1.4276    2.1831 H   0  0  0  0  0  0  0  0  0  0  0  0
   -0.2151   -1.0340   -0.3435 H   0  0  0  0  0  0  0  0  0  0  0  0
   -0.6837    0.2070   -2.2570 H   0  0  0  0  0  0  0  0  0  0  0  0
    0.3732    1.4983   -1.6638 H   0  0  0  0  0  0  0  0  0  0  0  0
   -1.6087    2.7414   -1.3568 H   0  0  0  0  0  0  0  0  0  0  0  0
   -1.2061    2.4230    0.9135 H   0  0  0  0  0  0  0  0  0  0  0  0
   -3.7389    2.4238    0.6822 H   0  0  0  0  0  0  0  0  0  0  0  0
   -3.0663    1.7209    2.1847 H   0  0  0  0  0  0  0  0  0  0  0  0
   -1.7854   -1.4028    1.9219 H   0  0  0  0  0  0  0  0  0  0  0  0
   -5.2804   -1.6514    1.4449 H   0  0  0  0  0  0  0  0  0  0  0  0
   -2.9719    0.3002   -1.5645 H   0  0  0  0  0  0  0  0  0  0  0  0
    5.6981   -0.6542   -1.3276 H   0  0  0  0  0  0  0  0  0  0  0  0
    3.1595   -1.9950   -3.3235 H   0  0  0  0  0  0  0  0  0  0  0  0
    4.8555   -1.9668   -3.0387 H   0  0  0  0  0  0  0  0  0  0  0  0
  1  2  2  0
  1 24  1  0
  3  2  1  0
  4  5  1  0
  4  3  2  0
  5  1  1  0
  6 25  1  6
  6  5  1  0
  6 10  1  0
  7  8  1  0
  7  6  1  0
  8  9  1  0
  9 10  1  0
  9 29  1  1
  9 11  1  0
 11 31  1  1
 12 11  1  0
 13 16  1  6
 13 12  1  0
 13 15  1  0
 14 13  2  0
 15 32  1  0
 16 33  1  0
 17 34  1  0
 17  8  1  0
 18  4  1  0
 19 18  2  0
 19 20  1  0
 20 21  1  0
 21  3  1  0
 21 22  2  0
 23 19  1  0
  7 26  1  6
 27  7  1  0
  8 28  1  1
 30 11  1  0
 35 20  1  0
 36 23  1  0
 37 23  1  0
M  END
$$$$
