-74.39819604
     RDKit          3D

 37 39  0  0  1  0  0  0  0  0999 V2000
    2.1154    2.7451   -0.6515 C   0  0  0  0  0  0  0  0  0  0  0  0
    3.2632    2.2186   -0.3846 N   0  0  0  0  0  0  0  0  0  0  0  0
    3.0059    0.9001   -0.1343 C   0  0  0  0  0  0  0  0  0  0  0  0
    1.6364    0.6480   -0.2686 C   0  0  0  0  0  0  0  0  0  0  0  0
    1.0710    1.8482   -0.5923 N   0  0  0  0  0  0  0  0  0  0  0  0
   -0.3130    2.2250   -0.8362 C   0  0  2  0  0  0  0  0  0  0  0  0
   -0.7850    3.2748    0.2038 C   0  0  2  0  0  0  0  0  0  0  0  0
   -1.9440    2.5681    0.9342 C   0  0  2  0  0  0  0  0  0  0  0  0
   -1.6454    1.0881    0.6143 C   0  0  2  0  0  0  0  0  0  0  0  0
   -1.1728    1.1399   -0.7268 O   0  0  0  0  0  0  0  0  0  0  0  0
   -2.8379    0.1412    0.7028 C   0  0  2  0  0  0  0  0  0  0  0  0
   -2.4038   -1.1628    1.0291 O   0  0  0  0  0  0  0  0  0  0  0  0
   -2.0423   -2.2135   -0.1158 P   0  0  1  0  0  0  0  0  0  0  0  0
   -1.3724   -3.3915    0.4526 O   0  0  0  0  0  0  0  0  0  0  0  0
   -3.4432   -2.5218   -0.8063 O   0  0  0  0  0  0  0  0  0  0  0  0
   -1.2588   -1.4744   -1.2601 O   0  0  0  0  0  0  0  0  0  0  0  0
   -3.2026    2.9679    0.4716 O   0  0  0  0  0  0  0  0  0  0  0  0
    1.0192   -0.5495   -0.1040 N   0  0  0  0  0  0  0  0  0  0  0  0
    1.8255   -1.5318    0.2421 C   0  0  0  0  0  0  0  0  0  0  0  0
    3.1690   -1.3559    0.4073 N   0  0  0  0  0  0  0  0  0  0  0  0
    3.9020   -0.1586    0.2263 C   0  0  0  0  0  0  0  0  0  0  0  0
    5.0974   -0.1693    0.3910 O   0  0  0  0  0  0  0  0  0  0  0  0
    1.3458   -2.7655    0.4273 N   0  0  0  0  0  0  0  0  0  0  0  0
    1.9590    3.7752   -0.9016 H   0  0  0  0  0  0  0  0  0  0  0  0
   -0.3751    2.5943   -1.8695 H   0  0  0  0  0  0  0  0  0  0  0  0
   -1.1338    4.1901   -0.2707 H   0  0  0  0  0  0  0  0  0  0  0  0
    0.0208    3.5190    0.8935 H   0  0  0  0  0  0  0  0  0  0  0  0
   -1.9483    2.7690    2.0062 H   0  0  0  0  0  0  0  0  0  0  0  0
   -0.8540    0.7127    1.2788 H   0  0  0  0  0  0  0  0  0  0  0  0
   -3.3755    0.1376   -0.2476 H   0  0  0  0  0  0  0  0  0  0  0  0
   -3.5060    0.4608    1.5066 H   0  0  0  0  0  0  0  0  0  0  0  0
   -3.4764   -3.4414   -1.0635 H   0  0  0  0  0  0  0  0  0  0  0  0
   -0.4353   -1.0348   -0.9271 H   0  0  0  0  0  0  0  0  0  0  0  0
   -3.2758    2.7410   -0.4641 H   0  0  0  0  0  0  0  0  0  0  0  0
    3.7354   -2.1550    0.6671 H   0  0  0  0  0  0  0  0  0  0  0  0
    0.3442   -2.9618    0.4332 H   0  0  0  0  0  0  0  0  0  0  0  0
    1.9601   -3.4871    0.7599 H   0  0  0  0  0  0  0  0  0  0  0  0
  1  5  1  0
  1  2  2  0
  2  3  1  0
  3 21  1  0
  4  3  2  0
  4 18  1  0
  5  4  1  0
  6 25  1  6
  6 10  1  0
  6  5  1  0
  6  7  1  0
  7 27  1  1
  7  8  1  0
  8  9  1  0
  8 28  1  1
  9 11  1  0
  9 29  1  1
 10  9  1  0
 11 12  1  0
 11 31  1  1
 13 14  2  0
 13 12  1  1
 15 13  1  0
 16 33  1  0
 16 13  1  0
 17  8  1  0
 18 19  2  0
 19 20  1  0
 19 23  1  0
 20 35  1  0
 21 22  2  0
 21 20  1  0
 23 36  1  0
 23 37  1  0
 24  1  1  0
 26  7  1  0
 30 11  1  0
 32 15  1  0
 34 17  1  0
M  END
$$$$
