-74.39802029
     RDKit          3D

 37 39  0  0  1  0  0  0  0  0999 V2000
    1.7925    2.5090   -0.3583 C   0  0  0  0  0  0  0  0  0  0  0  0
    3.0327    2.2243   -0.1228 N   0  0  0  0  0  0  0  0  0  0  0  0
    3.0911    0.8583   -0.0429 C   0  0  0  0  0  0  0  0  0  0  0  0
    1.8151    0.3376   -0.2475 C   0  0  0  0  0  0  0  0  0  0  0  0
    0.9893    1.3990   -0.4616 N   0  0  0  0  0  0  0  0  0  0  0  0
   -0.4283    1.1993   -0.6704 C   0  0  2  0  0  0  0  0  0  0  0  0
   -1.2631    2.4677   -0.8057 C   0  0  2  0  0  0  0  0  0  0  0  0
   -1.8560    2.6632    0.6016 C   0  0  2  0  0  0  0  0  0  0  0  0
   -1.9481    1.2051    1.1130 C   0  0  2  0  0  0  0  0  0  0  0  0
   -0.9071    0.5054    0.4685 O   0  0  0  0  0  0  0  0  0  0  0  0
   -3.2680    0.4980    0.7607 C   0  0  2  0  0  0  0  0  0  0  0  0
   -3.0938   -0.8896    0.8923 O   0  0  0  0  0  0  0  0  0  0  0  0
   -2.3321   -1.6455   -0.3319 P   0  0  1  0  0  0  0  0  0  0  0  0
   -2.3392   -0.8990   -1.5876 O   0  0  0  0  0  0  0  0  0  0  0  0
   -0.9476   -2.1989    0.2097 O   0  0  0  0  0  0  0  0  0  0  0  0
   -3.1728   -2.9905   -0.3855 O   0  0  0  0  0  0  0  0  0  0  0  0
   -3.0448    3.3866    0.6467 O   0  0  0  0  0  0  0  0  0  0  0  0
    1.4452   -0.9625   -0.2184 N   0  0  0  0  0  0  0  0  0  0  0  0
    2.4315   -1.7901    0.0114 C   0  0  0  0  0  0  0  0  0  0  0  0
    3.7135   -1.3792    0.2040 N   0  0  0  0  0  0  0  0  0  0  0  0
    4.1857   -0.0352    0.2046 C   0  0  0  0  0  0  0  0  0  0  0  0
    5.3579    0.1664    0.4024 O   0  0  0  0  0  0  0  0  0  0  0  0
    2.1690   -3.1146    0.0217 N   0  0  0  0  0  0  0  0  0  0  0  0
    1.4267    3.5088   -0.4731 H   0  0  0  0  0  0  0  0  0  0  0  0
   -0.5391    0.5346   -1.5383 H   0  0  0  0  0  0  0  0  0  0  0  0
   -2.0684    2.2869   -1.5196 H   0  0  0  0  0  0  0  0  0  0  0  0
   -0.6854    3.3228   -1.1437 H   0  0  0  0  0  0  0  0  0  0  0  0
   -1.1573    3.2205    1.2346 H   0  0  0  0  0  0  0  0  0  0  0  0
   -1.7783    1.1237    2.1916 H   0  0  0  0  0  0  0  0  0  0  0  0
   -3.5414    0.7143   -0.2780 H   0  0  0  0  0  0  0  0  0  0  0  0
   -4.0696    0.7917    1.4414 H   0  0  0  0  0  0  0  0  0  0  0  0
   -0.1865   -1.5902    0.0544 H   0  0  0  0  0  0  0  0  0  0  0  0
   -3.1696   -3.4422    0.4577 H   0  0  0  0  0  0  0  0  0  0  0  0
   -3.6860    3.0043    0.0357 H   0  0  0  0  0  0  0  0  0  0  0  0
    4.4374   -2.0707    0.3610 H   0  0  0  0  0  0  0  0  0  0  0  0
    1.1983   -3.3808   -0.0038 H   0  0  0  0  0  0  0  0  0  0  0  0
    2.8409   -3.7666    0.3845 H   0  0  0  0  0  0  0  0  0  0  0  0
  1  2  2  0
  2  3  1  0
  3 21  1  0
  4 18  1  0
  4  3  2  0
  5  1  1  0
  5  4  1  0
  6 25  1  6
  6  5  1  0
  6 10  1  0
  7  6  1  0
  7  8  1  0
  8 17  1  0
  8  9  1  0
  8 28  1  1
  9 29  1  1
 10  9  1  0
 11 12  1  0
 11  9  1  0
 11 31  1  1
 13 15  1  1
 13 12  1  0
 14 13  2  0
 16 13  1  0
 16 33  1  0
 18 19  2  0
 19 23  1  0
 19 20  1  0
 20 21  1  0
 20 35  1  0
 21 22  2  0
 23 37  1  0
 24  1  1  0
  7 26  1  6
 27  7  1  0
 30 11  1  0
 32 15  1  0
 34 17  1  0
 36 23  1  0
M  END
$$$$
