-74.39730282
     RDKit          3D

 37 39  0  0  1  0  0  0  0  0999 V2000
    1.6583    2.2065    0.3574 C   0  0  0  0  0  0  0  0  0  0  0  0
    2.9038    2.0666    0.6754 N   0  0  0  0  0  0  0  0  0  0  0  0
    3.2424    0.7955    0.2922 C   0  0  0  0  0  0  0  0  0  0  0  0
    2.1285    0.1755   -0.2717 C   0  0  0  0  0  0  0  0  0  0  0  0
    1.1207    1.0922   -0.2455 N   0  0  0  0  0  0  0  0  0  0  0  0
   -0.2343    0.8050   -0.6487 C   0  0  2  0  0  0  0  0  0  0  0  0
   -0.9601    2.0125   -1.2478 C   0  0  2  0  0  0  0  0  0  0  0  0
   -2.0625    2.3772   -0.2303 C   0  0  2  0  0  0  0  0  0  0  0  0
   -1.7594    1.4361    0.9798 C   0  0  2  0  0  0  0  0  0  0  0  0
   -0.9760    0.3740    0.4725 O   0  0  0  0  0  0  0  0  0  0  0  0
   -3.0209    0.8382    1.6332 C   0  0  2  0  0  0  0  0  0  0  0  0
   -3.1474   -0.5491    1.4334 O   0  0  0  0  0  0  0  0  0  0  0  0
   -2.9348   -1.2689    0.0059 P   0  0  1  0  0  0  0  0  0  0  0  0
   -3.0064   -0.4329   -1.1944 O   0  0  0  0  0  0  0  0  0  0  0  0
   -1.6759   -2.2296    0.1833 O   0  0  0  0  0  0  0  0  0  0  0  0
   -4.0921   -2.3434    0.0422 O   0  0  0  0  0  0  0  0  0  0  0  0
   -3.3412    2.2338   -0.7475 O   0  0  0  0  0  0  0  0  0  0  0  0
    2.0425   -1.0815   -0.7598 N   0  0  0  0  0  0  0  0  0  0  0  0
    3.1604   -1.7490   -0.6733 C   0  0  0  0  0  0  0  0  0  0  0  0
    4.3062   -1.2304   -0.1516 N   0  0  0  0  0  0  0  0  0  0  0  0
    4.4772    0.0727    0.3905 C   0  0  0  0  0  0  0  0  0  0  0  0
    5.5570    0.3840    0.8292 O   0  0  0  0  0  0  0  0  0  0  0  0
    3.1788   -3.0438   -1.0737 N   0  0  0  0  0  0  0  0  0  0  0  0
    1.0893    3.0970    0.5344 H   0  0  0  0  0  0  0  0  0  0  0  0
   -0.1697   -0.0433   -1.3401 H   0  0  0  0  0  0  0  0  0  0  0  0
   -1.4322    1.7361   -2.1890 H   0  0  0  0  0  0  0  0  0  0  0  0
   -0.2721    2.8354   -1.4273 H   0  0  0  0  0  0  0  0  0  0  0  0
   -1.9918    3.4207    0.0909 H   0  0  0  0  0  0  0  0  0  0  0  0
   -1.1774    1.9861    1.7329 H   0  0  0  0  0  0  0  0  0  0  0  0
   -3.9001    1.3560    1.2326 H   0  0  0  0  0  0  0  0  0  0  0  0
   -2.9861    0.9667    2.7176 H   0  0  0  0  0  0  0  0  0  0  0  0
   -0.8426   -1.7587    0.1983 H   0  0  0  0  0  0  0  0  0  0  0  0
   -4.0303   -2.9247    0.7992 H   0  0  0  0  0  0  0  0  0  0  0  0
   -3.4272    1.3142   -1.0763 H   0  0  0  0  0  0  0  0  0  0  0  0
    5.1343   -1.8120   -0.1007 H   0  0  0  0  0  0  0  0  0  0  0  0
    2.3709   -3.3612   -1.5812 H   0  0  0  0  0  0  0  0  0  0  0  0
    4.0561   -3.4965   -1.2609 H   0  0  0  0  0  0  0  0  0  0  0  0
  1 24  1  0
  1  2  2  0
  3 21  1  0
  3  2  1  0
  4  5  1  0
  4  3  2  0
  5  1  1  0
  6 25  1  6
  6  5  1  0
  6 10  1  0
  7  6  1  0
  7  8  1  0
  8 28  1  1
  8  9  1  0
  9 11  1  0
  9 29  1  1
 10  9  1  0
 11 31  1  1
 12 11  1  0
 13 16  1  6
 13 15  1  0
 13 12  1  0
 14 13  2  0
 15 32  1  0
 16 33  1  0
 17  8  1  0
 18 19  2  0
 18  4  1  0
 19 20  1  0
 20 35  1  0
 20 21  1  0
 21 22  2  0
 23 19  1  0
  7 26  1  6
 27  7  1  0
 30 11  1  0
 34 17  1  0
 36 23  1  0
 37 23  1  0
M  END
$$$$
