Coordinates from ORCA-job xci
     RDKit          3D

 35 34  0  0  0  0  0  0  0  0999 V2000
    1.9310   -0.1140    0.1090 N   0  0  0  0  0  0  0  0  0  0  0  0
    2.6640    0.2980    0.6670 H   0  0  0  0  0  0  0  0  0  0  0  0
    0.5860    0.2080    0.5270 C   0  0  1  0  0  0  0  0  0  0  0  0
   -0.0340    0.1960   -0.3650 H   0  0  0  0  0  0  0  0  0  0  0  0
    0.0600   -0.8100    1.5520 C   0  0  1  0  0  0  0  0  0  0  0  0
    0.5900    1.5990    1.1330 C   0  0  2  0  0  0  0  0  0  0  0  0
    0.8900   -1.0680    2.2090 H   0  0  0  0  0  0  0  0  0  0  0  0
   -0.6970   -0.3340    2.1820 H   0  0  0  0  0  0  0  0  0  0  0  0
   -0.5270   -2.0560    0.8780 C   0  0  2  0  0  0  0  0  0  0  0  0
    1.5350    2.0010    1.8130 O   0  0  0  0  0  0  0  0  0  0  0  0
   -0.2640   -2.9590    1.4320 H   0  0  0  0  0  0  0  0  0  0  0  0
   -0.1110   -2.1580   -0.1250 H   0  0  0  0  0  0  0  0  0  0  0  0
   -2.0550   -2.0010    0.8030 C   0  0  2  0  0  0  0  0  0  0  0  0
   -2.4700   -2.1120    1.8050 H   0  0  0  0  0  0  0  0  0  0  0  0
   -2.4310   -2.8440    0.2230 H   0  0  0  0  0  0  0  0  0  0  0  0
   -2.6180   -0.7600    0.2780 N   0  0  0  0  0  0  0  0  0  0  0  0
   -2.6450    0.0070    0.9330 H   0  0  0  0  0  0  0  0  0  0  0  0
   -2.3280   -0.2980   -0.9860 C   0  0  0  0  0  0  0  0  0  0  0  0
   -2.1820    0.9740   -1.1700 N   0  0  0  0  0  0  0  0  0  0  0  0
   -2.1840   -1.2840   -1.9270 N   0  0  0  0  0  0  0  0  0  0  0  0
   -2.0950    1.1840   -2.1590 H   0  0  0  0  0  0  0  0  0  0  0  0
   -2.7430   -2.1130   -1.8330 H   0  0  0  0  0  0  0  0  0  0  0  0
   -1.9880   -0.9910   -2.8670 H   0  0  0  0  0  0  0  0  0  0  0  0
   -0.5430    2.2930    0.9110 N   0  0  0  0  0  0  0  0  0  0  0  0
   -0.6970    3.6280    1.4490 C   0  0  2  0  0  0  0  0  0  0  0  0
   -1.1850    1.9500    0.1900 H   0  0  0  0  0  0  0  0  0  0  0  0
   -0.4190    3.6350    2.5000 H   0  0  0  0  0  0  0  0  0  0  0  0
   -1.7360    3.9290    1.3460 H   0  0  0  0  0  0  0  0  0  0  0  0
   -0.0630    4.3480    0.9310 H   0  0  0  0  0  0  0  0  0  0  0  0
    2.2080   -0.5860   -1.1350 C   0  0  0  0  0  0  0  0  0  0  0  0
    3.6770   -0.6630   -1.4760 C   0  0  1  0  0  0  0  0  0  0  0  0
    1.3380   -0.9330   -1.9290 O   0  0  0  0  0  0  0  0  0  0  0  0
    4.3230   -0.5000   -0.6170 H   0  0  0  0  0  0  0  0  0  0  0  0
    3.8830   -1.6380   -1.9090 H   0  0  0  0  0  0  0  0  0  0  0  0
    3.8950    0.0880   -2.2330 H   0  0  0  0  0  0  0  0  0  0  0  0
  1 30  1  0
  1  3  1  0
  1  2  1  0
  3  4  1  6
  3  6  1  0
  3  5  1  0
  5  9  1  0
  5  8  1  1
  5  7  1  0
  6 24  1  0
  6 10  1  1
  9 12  1  6
  9 13  1  0
  9 11  1  0
 13 15  1  6
 13 16  1  0
 13 14  1  0
 16 18  1  0
 16 17  1  0
 18 20  1  0
 18 19  1  0
 19 21  1  0
 20 23  1  0
 20 22  1  0
 24 26  1  0
 24 25  1  0
 25 29  1  6
 25 28  1  0
 25 27  1  0
 30 32  1  0
 30 31  1  0
 31 35  1  6
 31 34  1  0
 31 33  1  0
M  END
$$$$
