-21.78364394
     RDKit          3D

 16 15  0  0  0  0  0  0  0  0999 V2000
   -1.5991   -0.0714   -0.3482 C   0  0  1  0  0  0  0  0  0  0  0  0
   -2.6658   -0.2923   -0.2034 H   0  0  0  0  0  0  0  0  0  0  0  0
   -1.2965    1.1859    0.2215 O   0  0  0  0  0  0  0  0  0  0  0  0
   -0.7651   -1.2240    0.2162 C   0  0  1  0  0  0  0  0  0  0  0  0
   -0.8126   -1.1973    1.3097 H   0  0  0  0  0  0  0  0  0  0  0  0
   -1.2321   -2.1553   -0.1107 H   0  0  0  0  0  0  0  0  0  0  0  0
    0.7006   -1.2378   -0.2285 C   0  0  2  0  0  0  0  0  0  0  0  0
    0.7535   -1.1690   -1.3166 H   0  0  0  0  0  0  0  0  0  0  0  0
    1.1343   -2.1943    0.0701 H   0  0  0  0  0  0  0  0  0  0  0  0
   -1.4372    1.1391    1.1742 H   0  0  0  0  0  0  0  0  0  0  0  0
   -1.4135    0.0434   -1.4185 H   0  0  0  0  0  0  0  0  0  0  0  0
    1.5679   -0.1196    0.3677 C   0  0  1  0  0  0  0  0  0  0  0  0
    1.3448   -0.0157    1.4424 H   0  0  0  0  0  0  0  0  0  0  0  0
    2.6216   -0.3957    0.2690 H   0  0  0  0  0  0  0  0  0  0  0  0
    1.4437    1.1113   -0.2884 O   0  0  0  0  0  0  0  0  0  0  0  0
    0.5113    1.3843   -0.2416 H   0  0  0  0  0  0  0  0  0  0  0  0
  1  2  1  6
  1  4  1  0
  1  3  1  0
  3 10  1  0
  4  5  1  1
  6  4  1  0
  7  9  1  6
  7  4  1  0
  7 12  1  0
  8  7  1  0
 11  1  1  0
 12 13  1  1
 14 12  1  0
 15 16  1  0
 15 12  1  0
M  END
$$$$
