-21.77991246
     RDKit          3D

 16 15  0  0  0  0  0  0  0  0999 V2000
   -1.4600    0.1331    0.5500 C   0  0  1  0  0  0  0  0  0  0  0  0
   -0.9100    0.8597    1.1638 H   0  0  0  0  0  0  0  0  0  0  0  0
   -2.6213    0.7264    0.0179 O   0  0  0  0  0  0  0  0  0  0  0  0
   -0.5484   -0.4370   -0.5383 C   0  0  1  0  0  0  0  0  0  0  0  0
   -1.1347   -1.1314   -1.1437 H   0  0  0  0  0  0  0  0  0  0  0  0
   -0.2110    0.3772   -1.1863 H   0  0  0  0  0  0  0  0  0  0  0  0
    0.6769   -1.1556    0.0266 C   0  0  2  0  0  0  0  0  0  0  0  0
    1.1158   -1.7794   -0.7578 H   0  0  0  0  0  0  0  0  0  0  0  0
    0.3827   -1.8096    0.8487 H   0  0  0  0  0  0  0  0  0  0  0  0
   -2.3567    1.4345   -0.5801 H   0  0  0  0  0  0  0  0  0  0  0  0
   -1.8168   -0.6693    1.2009 H   0  0  0  0  0  0  0  0  0  0  0  0
    1.7483   -0.1823    0.5273 C   0  0  1  0  0  0  0  0  0  0  0  0
    1.3453    0.4669    1.3065 H   0  0  0  0  0  0  0  0  0  0  0  0
    2.5861   -0.7525    0.9554 H   0  0  0  0  0  0  0  0  0  0  0  0
    2.2100    0.6855   -0.4804 O   0  0  0  0  0  0  0  0  0  0  0  0
    2.5614    0.1561   -1.2054 H   0  0  0  0  0  0  0  0  0  0  0  0
  1  2  1  1
  1 11  1  0
  3  1  1  0
  4  7  1  0
  4  1  1  0
  4  5  1  6
  6  4  1  0
  7 12  1  0
  7  9  1  1
  8  7  1  0
 10  3  1  0
 12 14  1  1
 12 13  1  0
 15 12  1  0
 16 15  1  0
M  END
$$$$
