-21.77954384
     RDKit          3D

 16 15  0  0  0  0  0  0  0  0999 V2000
   -1.8594   -0.2234   -0.2717 C   0  0  1  0  0  0  0  0  0  0  0  0
   -2.8523   -0.6565   -0.0750 H   0  0  0  0  0  0  0  0  0  0  0  0
   -1.7731    1.0559    0.3080 O   0  0  0  0  0  0  0  0  0  0  0  0
   -0.7865   -1.2045    0.2095 C   0  0  1  0  0  0  0  0  0  0  0  0
   -0.7697   -1.2076    1.3038 H   0  0  0  0  0  0  0  0  0  0  0  0
   -1.0759   -2.2039   -0.1215 H   0  0  0  0  0  0  0  0  0  0  0  0
    0.6140   -0.8993   -0.3204 C   0  0  2  0  0  0  0  0  0  0  0  0
    0.5861   -0.8291   -1.4095 H   0  0  0  0  0  0  0  0  0  0  0  0
    1.2783   -1.7291   -0.0561 H   0  0  0  0  0  0  0  0  0  0  0  0
   -1.8239    0.9680    1.2662 H   0  0  0  0  0  0  0  0  0  0  0  0
   -1.7641   -0.0603   -1.3474 H   0  0  0  0  0  0  0  0  0  0  0  0
    1.2011    0.3977    0.2410 C   0  0  1  0  0  0  0  0  0  0  0  0
    0.5942    1.2518   -0.0622 H   0  0  0  0  0  0  0  0  0  0  0  0
    1.2150    0.3495    1.3415 H   0  0  0  0  0  0  0  0  0  0  0  0
    2.4945    0.6578   -0.2517 O   0  0  0  0  0  0  0  0  0  0  0  0
    3.0630   -0.0929   -0.0454 H   0  0  0  0  0  0  0  0  0  0  0  0
  1  2  1  6
  1  4  1  0
  1  3  1  0
  3 10  1  0
  4  5  1  1
  6  4  1  0
  7  9  1  6
  7  4  1  0
  7 12  1  0
  8  7  1  0
 11  1  1  0
 12 14  1  1
 13 12  1  0
 15 16  1  0
 15 12  1  0
M  END
$$$$
