-21.77936453
     RDKit          3D

 16 15  0  0  0  0  0  0  0  0999 V2000
   -1.5392    0.4439    0.3184 C   0  0  1  0  0  0  0  0  0  0  0  0
   -1.1314    1.3926   -0.0579 H   0  0  0  0  0  0  0  0  0  0  0  0
   -2.9117    0.3519    0.0175 O   0  0  0  0  0  0  0  0  0  0  0  0
   -0.7418   -0.7370   -0.2412 C   0  0  1  0  0  0  0  0  0  0  0  0
   -1.2423   -1.6563    0.0717 H   0  0  0  0  0  0  0  0  0  0  0  0
   -0.7610   -0.7006   -1.3343 H   0  0  0  0  0  0  0  0  0  0  0  0
    0.7067   -0.7712    0.2401 C   0  0  2  0  0  0  0  0  0  0  0  0
    1.1640   -1.7119   -0.0752 H   0  0  0  0  0  0  0  0  0  0  0  0
    0.7275   -0.7385    1.3332 H   0  0  0  0  0  0  0  0  0  0  0  0
   -3.0169    0.3086   -0.9395 H   0  0  0  0  0  0  0  0  0  0  0  0
   -1.4843    0.4512    1.4097 H   0  0  0  0  0  0  0  0  0  0  0  0
    1.5580    0.3728   -0.3167 C   0  0  1  0  0  0  0  0  0  0  0  0
    1.5022    0.3863   -1.4079 H   0  0  0  0  0  0  0  0  0  0  0  0
    1.1957    1.3383    0.0632 H   0  0  0  0  0  0  0  0  0  0  0  0
    2.9250    0.2154   -0.0180 O   0  0  0  0  0  0  0  0  0  0  0  0
    3.0295    0.1655    0.9387 H   0  0  0  0  0  0  0  0  0  0  0  0
  1 11  1  1
  2  1  1  0
  3  1  1  0
  4  5  1  6
  4  7  1  0
  4  1  1  0
  6  4  1  0
  7  9  1  1
  8  7  1  0
 10  3  1  0
 12 15  1  0
 12 14  1  1
 12  7  1  0
 13 12  1  0
 15 16  1  0
M  END
$$$$
