-21.77808360
     RDKit          3D

 16 15  0  0  0  0  0  0  0  0999 V2000
   -1.5844    0.4662   -0.3207 C   0  0  1  0  0  0  0  0  0  0  0  0
   -2.2416    0.5263   -1.1915 H   0  0  0  0  0  0  0  0  0  0  0  0
   -2.4445    0.2594    0.7729 O   0  0  0  0  0  0  0  0  0  0  0  0
   -0.5756   -0.6713   -0.5156 C   0  0  1  0  0  0  0  0  0  0  0  0
   -1.1236   -1.6144   -0.4645 H   0  0  0  0  0  0  0  0  0  0  0  0
   -0.1508   -0.5927   -1.5188 H   0  0  0  0  0  0  0  0  0  0  0  0
    0.5457   -0.6861    0.5292 C   0  0  2  0  0  0  0  0  0  0  0  0
    1.0509   -1.6536    0.4969 H   0  0  0  0  0  0  0  0  0  0  0  0
    0.1253   -0.5689    1.5306 H   0  0  0  0  0  0  0  0  0  0  0  0
   -1.9145    0.1631    1.5718 H   0  0  0  0  0  0  0  0  0  0  0  0
   -1.0618    1.4284   -0.2187 H   0  0  0  0  0  0  0  0  0  0  0  0
    1.6042    0.4012    0.3126 C   0  0  1  0  0  0  0  0  0  0  0  0
    1.1251    1.3838    0.1930 H   0  0  0  0  0  0  0  0  0  0  0  0
    2.2646    0.4479    1.1818 H   0  0  0  0  0  0  0  0  0  0  0  0
    2.4527    0.1357   -0.7774 O   0  0  0  0  0  0  0  0  0  0  0  0
    1.9180    0.0495   -1.5744 H   0  0  0  0  0  0  0  0  0  0  0  0
  1 11  1  1
  1  3  1  0
  2  1  1  0
  3 10  1  0
  4  5  1  6
  4  1  1  0
  4  7  1  0
  6  4  1  0
  7  9  1  1
  8  7  1  0
 12  7  1  0
 12 14  1  1
 13 12  1  0
 15 12  1  0
 16 15  1  0
M  END
$$$$
