-21.77710317
     RDKit          3D

 16 15  0  0  0  0  0  0  0  0999 V2000
   -1.8418   -0.5110    0.1476 C   0  0  1  0  0  0  0  0  0  0  0  0
   -1.6869   -0.9583    1.1324 H   0  0  0  0  0  0  0  0  0  0  0  0
   -2.4812    0.7167    0.3950 O   0  0  0  0  0  0  0  0  0  0  0  0
   -0.5007   -0.3536   -0.5747 C   0  0  1  0  0  0  0  0  0  0  0  0
   -0.0720   -1.3522   -0.6906 H   0  0  0  0  0  0  0  0  0  0  0  0
   -0.6847    0.0444   -1.5763 H   0  0  0  0  0  0  0  0  0  0  0  0
    0.4611    0.5634    0.2007 C   0  0  2  0  0  0  0  0  0  0  0  0
   -0.0129    0.8706    1.1336 H   0  0  0  0  0  0  0  0  0  0  0  0
    0.6727    1.4660   -0.3745 H   0  0  0  0  0  0  0  0  0  0  0  0
   -2.5980    1.1802   -0.4419 H   0  0  0  0  0  0  0  0  0  0  0  0
   -2.4971   -1.1758   -0.4358 H   0  0  0  0  0  0  0  0  0  0  0  0
    1.7918   -0.1147    0.5297 C   0  0  1  0  0  0  0  0  0  0  0  0
    2.3839    0.5242    1.1887 H   0  0  0  0  0  0  0  0  0  0  0  0
    1.6051   -1.0682    1.0471 H   0  0  0  0  0  0  0  0  0  0  0  0
    2.5988   -0.3235   -0.6054 O   0  0  0  0  0  0  0  0  0  0  0  0
    2.0898   -0.8174   -1.2580 H   0  0  0  0  0  0  0  0  0  0  0  0
  1  3  1  0
  1  2  1  1
  4  1  1  0
  4  7  1  0
  4  5  1  6
  6  4  1  0
  7 12  1  0
  7  8  1  1
  9  7  1  0
 10  3  1  0
 11  1  1  0
 12 14  1  1
 12 13  1  0
 15 12  1  0
 16 15  1  0
M  END
$$$$
