-21.77526552
     RDKit          3D

 16 15  0  0  0  0  0  0  0  0999 V2000
   -1.8954   -0.2887   -0.0757 C   0  0  1  0  0  0  0  0  0  0  0  0
   -2.2524   -1.0714    0.6111 H   0  0  0  0  0  0  0  0  0  0  0  0
   -1.8364    0.9494    0.5928 O   0  0  0  0  0  0  0  0  0  0  0  0
   -0.5697   -0.7320   -0.7027 C   0  0  1  0  0  0  0  0  0  0  0  0
   -0.7603   -1.6656   -1.2332 H   0  0  0  0  0  0  0  0  0  0  0  0
   -0.2441    0.0079   -1.4339 H   0  0  0  0  0  0  0  0  0  0  0  0
    0.5522   -0.9378    0.3224 C   0  0  2  0  0  0  0  0  0  0  0  0
    1.2052   -1.7449   -0.0114 H   0  0  0  0  0  0  0  0  0  0  0  0
    0.1366   -1.2207    1.2928 H   0  0  0  0  0  0  0  0  0  0  0  0
   -1.2367    0.8618    1.3414 H   0  0  0  0  0  0  0  0  0  0  0  0
   -2.6437   -0.1559   -0.8608 H   0  0  0  0  0  0  0  0  0  0  0  0
    1.4304    0.3027    0.4861 C   0  0  1  0  0  0  0  0  0  0  0  0
    0.8135    1.1989    0.6376 H   0  0  0  0  0  0  0  0  0  0  0  0
    2.0838    0.1785    1.3640 H   0  0  0  0  0  0  0  0  0  0  0  0
    2.2094    0.4423   -0.6836 O   0  0  0  0  0  0  0  0  0  0  0  0
    2.7266    1.2515   -0.6265 H   0  0  0  0  0  0  0  0  0  0  0  0
  1  3  1  0
  1  2  1  1
  3 10  1  0
  4  1  1  0
  4  7  1  0
  4  5  1  6
  6  4  1  0
  7 12  1  0
  7  9  1  1
  8  7  1  0
 11  1  1  0
 12 13  1  1
 12 14  1  0
 15 16  1  0
 15 12  1  0
M  END
$$$$
