 energy: -43.663659307204 gnorm: 0.000048953913 xtb: 6.5.1 (9af7eec)
     RDKit          3D

 27 28  0  0  0  0  0  0  0  0999 V2000
    5.0820    4.4100    2.3539 C   0  0  0  0  0  0  0  0  0  0  0  0
    4.6211    4.1767    1.0551 C   0  0  0  0  0  0  0  0  0  0  0  0
    4.5509    3.7368    3.4323 C   0  0  0  0  0  0  0  0  0  0  0  0
    3.6246    3.2619    0.8006 C   0  0  0  0  0  0  0  0  0  0  0  0
    3.0763    2.5546    1.8707 C   0  0  0  0  0  0  0  0  0  0  0  0
    3.5463    2.8111    3.1818 C   0  0  0  0  0  0  0  0  0  0  0  0
    2.8423    2.0140    4.0363 N   0  0  0  0  0  0  0  0  0  0  0  0
    1.9551    1.2624    3.3144 C   0  0  0  0  0  0  0  0  0  0  0  0
    2.0583    1.5572    1.9855 C   0  0  0  0  0  0  0  0  0  0  0  0
    1.3150    0.9138    0.8621 C   0  0  1  0  0  0  0  0  0  0  0  0
    2.0176   -0.3799    0.3866 C   0  0  2  0  0  0  0  0  0  0  0  0
    1.8991   -1.4058    1.4018 N   0  0  0  0  0  0  0  0  0  0  0  0
    3.4689   -0.0581    0.0527 C   0  0  0  0  0  0  0  0  0  0  0  0
    3.5949    0.6389   -1.0807 O   0  0  0  0  0  0  0  0  0  0  0  0
    4.4108   -0.3999    0.7180 O   0  0  0  0  0  0  0  0  0  0  0  0
    0.3116    0.6342    1.1852 H   0  0  0  0  0  0  0  0  0  0  0  0
    1.2436    1.6025    0.0202 H   0  0  0  0  0  0  0  0  0  0  0  0
    1.5254   -0.7315   -0.5271 H   0  0  0  0  0  0  0  0  0  0  0  0
    1.2953    0.5709    3.8032 H   0  0  0  0  0  0  0  0  0  0  0  0
    2.9628    1.9764    5.0337 H   0  0  0  0  0  0  0  0  0  0  0  0
    3.2707    3.0965   -0.2065 H   0  0  0  0  0  0  0  0  0  0  0  0
    4.9013    3.9200    4.4376 H   0  0  0  0  0  0  0  0  0  0  0  0
    5.0596    4.7319    0.2385 H   0  0  0  0  0  0  0  0  0  0  0  0
    2.3765   -2.2500    1.1021 H   0  0  0  0  0  0  0  0  0  0  0  0
    2.3679   -1.0858    2.2449 H   0  0  0  0  0  0  0  0  0  0  0  0
    5.8670    5.1348    2.5113 H   0  0  0  0  0  0  0  0  0  0  0  0
    4.5275    0.8571   -1.2395 H   0  0  0  0  0  0  0  0  0  0  0  0
  1 26  1  0
  2  1  2  0
  2 23  1  0
  3 22  1  0
  3  1  1  0
  4  2  1  0
  5  6  1  0
  5  4  2  0
  6  3  2  0
  7  6  1  0
  8  9  2  0
  8  7  1  0
  9  5  1  0
 10  9  1  0
 10 16  1  1
 11 18  1  6
 11 10  1  0
 11 12  1  0
 12 24  1  0
 12 25  1  0
 13 14  1  0
 13 11  1  0
 14 27  1  0
 15 13  2  0
 17 10  1  0
 19  8  1  0
 20  7  1  0
 21  4  1  0
M  END
$$$$
