ACONF/H_x+g-x+/struc.xyz
     RDKit          3D

 20 19  0  0  0  0  0  0  0  0999 V2000
   -0.0680    1.7520   -1.0740 C   0  0  2  0  0  0  0  0  0  0  0  0
    0.8240    1.3870    0.1090 C   0  0  2  0  0  0  0  0  0  0  0  0
    0.0680    0.7620    1.2880 C   0  0  2  0  0  0  0  0  0  0  0  0
   -0.0680   -0.7620    1.2880 C   0  0  2  0  0  0  0  0  0  0  0  0
   -0.8240   -1.3870    0.1090 C   0  0  2  0  0  0  0  0  0  0  0  0
    0.0680   -1.7520   -1.0740 C   0  0  2  0  0  0  0  0  0  0  0  0
   -0.8120    2.4890   -0.7690 H   0  0  0  0  0  0  0  0  0  0  0  0
   -0.6040    0.8910   -1.4660 H   0  0  0  0  0  0  0  0  0  0  0  0
    0.5120    2.1840   -1.8890 H   0  0  0  0  0  0  0  0  0  0  0  0
    1.3160    2.2990    0.4510 H   0  0  0  0  0  0  0  0  0  0  0  0
    1.6240    0.7160   -0.2090 H   0  0  0  0  0  0  0  0  0  0  0  0
   -0.9290    1.2080    1.3430 H   0  0  0  0  0  0  0  0  0  0  0  0
    0.5730    1.0390    2.2160 H   0  0  0  0  0  0  0  0  0  0  0  0
   -0.5730   -1.0390    2.2160 H   0  0  0  0  0  0  0  0  0  0  0  0
    0.9290   -1.2080    1.3430 H   0  0  0  0  0  0  0  0  0  0  0  0
   -1.6240   -0.7160   -0.2090 H   0  0  0  0  0  0  0  0  0  0  0  0
   -1.3160   -2.2990    0.4510 H   0  0  0  0  0  0  0  0  0  0  0  0
   -0.5120   -2.1840   -1.8890 H   0  0  0  0  0  0  0  0  0  0  0  0
    0.8120   -2.4890   -0.7690 H   0  0  0  0  0  0  0  0  0  0  0  0
    0.6040   -0.8910   -1.4660 H   0  0  0  0  0  0  0  0  0  0  0  0
  1  9  1  6
  1  8  1  0
  1  7  1  0
  1  2  1  0
  2 11  1  6
  2 10  1  0
  2  3  1  0
  3  4  1  0
  3 12  1  1
  3 13  1  0
  4  5  1  0
  4 15  1  1
  4 14  1  0
  5  6  1  0
  5 16  1  6
  5 17  1  0
  6 18  1  6
  6 20  1  0
  6 19  1  0
M  END
$$$$
