ACONF/H_ggg/struc.xyz
     RDKit          3D

 20 19  0  0  0  0  0  0  0  0999 V2000
   -0.7610    2.1920   -0.4880 C   0  0  2  0  0  0  0  0  0  0  0  0
   -1.3210    0.7870   -0.2970 C   0  0  2  0  0  0  0  0  0  0  0  0
   -0.7610    0.0780    0.9340 C   0  0  2  0  0  0  0  0  0  0  0  0
    0.7610   -0.0780    0.9340 C   0  0  2  0  0  0  0  0  0  0  0  0
    1.3210   -0.7870   -0.2970 C   0  0  2  0  0  0  0  0  0  0  0  0
    0.7610   -2.1920   -0.4880 C   0  0  2  0  0  0  0  0  0  0  0  0
    0.3100    2.1730   -0.6850 H   0  0  0  0  0  0  0  0  0  0  0  0
   -0.9220    2.7960    0.4050 H   0  0  0  0  0  0  0  0  0  0  0  0
   -1.2400    2.6970   -1.3250 H   0  0  0  0  0  0  0  0  0  0  0  0
   -1.1240    0.1910   -1.1900 H   0  0  0  0  0  0  0  0  0  0  0  0
   -2.4070    0.8430   -0.2040 H   0  0  0  0  0  0  0  0  0  0  0  0
   -1.2280   -0.9040    1.0260 H   0  0  0  0  0  0  0  0  0  0  0  0
   -1.0540    0.6380    1.8260 H   0  0  0  0  0  0  0  0  0  0  0  0
    1.0540   -0.6380    1.8260 H   0  0  0  0  0  0  0  0  0  0  0  0
    1.2280    0.9040    1.0260 H   0  0  0  0  0  0  0  0  0  0  0  0
    2.4070   -0.8430   -0.2040 H   0  0  0  0  0  0  0  0  0  0  0  0
    1.1240   -0.1910   -1.1900 H   0  0  0  0  0  0  0  0  0  0  0  0
    1.2400   -2.6970   -1.3250 H   0  0  0  0  0  0  0  0  0  0  0  0
   -0.3100   -2.1730   -0.6850 H   0  0  0  0  0  0  0  0  0  0  0  0
    0.9220   -2.7960    0.4050 H   0  0  0  0  0  0  0  0  0  0  0  0
  1  9  1  6
  1  7  1  0
  1  2  1  0
  1  8  1  0
  2 10  1  6
  2 11  1  0
  2  3  1  0
  3  4  1  0
  3 12  1  1
  3 13  1  0
  4  5  1  0
  4 15  1  1
  4 14  1  0
  5 17  1  6
  5  6  1  0
  5 16  1  0
  6 18  1  6
  6 19  1  0
  6 20  1  0
M  END
$$$$
