 energy: -21.781480334036 gnorm: 0.000013846267 xtb: 6.5.1 (9af7eec)
     RDKit          3D

 16 15  0  0  0  0  0  0  0  0999 V2000
    1.6289   -0.0941   -0.0845 C   0  0  1  0  0  0  0  0  0  0  0  0
    1.9179   -1.0838   -0.4484 H   0  0  0  0  0  0  0  0  0  0  0  0
    2.6582    0.7735   -0.4926 O   0  0  0  0  0  0  0  0  0  0  0  0
    0.2535    0.2926   -0.6360 C   0  0  1  0  0  0  0  0  0  0  0  0
   -0.4663   -0.4470   -0.2836 H   0  0  0  0  0  0  0  0  0  0  0  0
   -0.0328    1.2618   -0.2203 H   0  0  0  0  0  0  0  0  0  0  0  0
    0.2306    0.3739   -2.1700 C   0  0  2  0  0  0  0  0  0  0  0  0
   -0.6549   -0.1257   -2.5641 H   0  0  0  0  0  0  0  0  0  0  0  0
    1.1092   -0.1382   -2.5704 H   0  0  0  0  0  0  0  0  0  0  0  0
    2.3791    1.6789   -0.3021 H   0  0  0  0  0  0  0  0  0  0  0  0
    1.5778   -0.1340    1.0144 H   0  0  0  0  0  0  0  0  0  0  0  0
    0.2222    1.8159   -2.6858 C   0  0  1  0  0  0  0  0  0  0  0  0
    0.2063    1.8042   -3.7865 H   0  0  0  0  0  0  0  0  0  0  0  0
   -0.6737    2.3371   -2.3377 H   0  0  0  0  0  0  0  0  0  0  0  0
    1.3080    2.5810   -2.2230 O   0  0  0  0  0  0  0  0  0  0  0  0
    2.1193    2.0865   -2.3999 H   0  0  0  0  0  0  0  0  0  0  0  0
  1  3  1  0
  1  2  1  6
  1  4  1  0
  1 11  1  0
  3 10  1  0
  4  7  1  0
  4  6  1  1
  4  5  1  0
  7  8  1  6
  7 12  1  0
  7  9  1  0
 12 13  1  6
 12 14  1  0
 12 15  1  0
 15 16  1  0
M  END
$$$$
