 energy: -42.468896843793 gnorm: 0.000021119027 xtb: 6.5.1 (9af7eec)
     RDKit          3D

 31 30  0  0  0  0  0  0  0  0999 V2000
   -0.4487   -0.5411   -0.5830 N   0  0  0  0  0  0  0  0  0  0  0  0
    0.0034    0.4600    0.3558 C   0  0  2  0  0  0  0  0  0  0  0  0
   -0.3697    1.8273   -0.2246 C   0  0  0  0  0  0  0  0  0  0  0  0
   -0.2419    2.0666   -1.4092 O   0  0  0  0  0  0  0  0  0  0  0  0
    1.5330    0.3906    0.5587 C   0  0  2  0  0  0  0  0  0  0  0  0
    1.9909   -1.0236    0.9436 C   0  0  2  0  0  0  0  0  0  0  0  0
    1.9844    1.4329    1.5799 C   0  0  1  0  0  0  0  0  0  0  0  0
    1.3993   -1.5599    2.2426 C   0  0  2  0  0  0  0  0  0  0  0  0
   -0.2438   -0.3381   -1.5509 H   0  0  0  0  0  0  0  0  0  0  0  0
   -0.5159    0.2731    1.2995 H   0  0  0  0  0  0  0  0  0  0  0  0
    1.9948    0.6338   -0.4060 H   0  0  0  0  0  0  0  0  0  0  0  0
    3.0809   -1.0107    1.0231 H   0  0  0  0  0  0  0  0  0  0  0  0
    1.7297   -1.7070    0.1332 H   0  0  0  0  0  0  0  0  0  0  0  0
    3.0476    1.3205    1.7788 H   0  0  0  0  0  0  0  0  0  0  0  0
    1.8153    2.4388    1.2031 H   0  0  0  0  0  0  0  0  0  0  0  0
    1.4469    1.3192    2.5182 H   0  0  0  0  0  0  0  0  0  0  0  0
    1.6358   -0.9111    3.0817 H   0  0  0  0  0  0  0  0  0  0  0  0
    1.8149   -2.5431    2.4514 H   0  0  0  0  0  0  0  0  0  0  0  0
    0.3205   -1.6640    2.1663 H   0  0  0  0  0  0  0  0  0  0  0  0
   -0.8390    2.7172    0.6695 N   0  0  0  0  0  0  0  0  0  0  0  0
   -0.9427    2.4445    1.6336 H   0  0  0  0  0  0  0  0  0  0  0  0
   -1.2251    4.0595    0.3064 C   0  0  1  0  0  0  0  0  0  0  0  0
   -0.6279    4.7932    0.8511 H   0  0  0  0  0  0  0  0  0  0  0  0
   -1.0495    4.1710   -0.7622 H   0  0  0  0  0  0  0  0  0  0  0  0
   -2.2819    4.2284    0.5193 H   0  0  0  0  0  0  0  0  0  0  0  0
   -1.3507   -1.4938   -0.2574 C   0  0  0  0  0  0  0  0  0  0  0  0
   -1.7418   -1.6644    0.8796 O   0  0  0  0  0  0  0  0  0  0  0  0
   -1.7925   -2.3366   -1.4340 C   0  0  2  0  0  0  0  0  0  0  0  0
   -2.4651   -3.1150   -1.0867 H   0  0  0  0  0  0  0  0  0  0  0  0
   -0.9293   -2.7915   -1.9142 H   0  0  0  0  0  0  0  0  0  0  0  0
   -2.3085   -1.7133   -2.1612 H   0  0  0  0  0  0  0  0  0  0  0  0
  1  2  1  0
  1 26  1  0
  1  9  1  0
  2 10  1  1
  2  5  1  0
  2  3  1  0
  3 20  1  0
  3  4  1  0
  5  7  1  0
  5  6  1  0
  5 11  1  6
  6 13  1  6
  6  8  1  0
  6 12  1  0
  7 15  1  6
  7 16  1  0
  7 14  1  0
  8 19  1  6
  8 18  1  0
  8 17  1  0
 20 21  1  0
 20 22  1  0
 22 23  1  1
 22 24  1  0
 22 25  1  0
 26 27  1  0
 26 28  1  0
 28 30  1  6
 28 29  1  0
 28 31  1  0
M  END
$$$$
