 energy: -42.467650706199 gnorm: 0.000049181852 xtb: 6.5.1 (9af7eec)
     RDKit          3D

 31 30  0  0  0  0  0  0  0  0999 V2000
   -0.9498   -0.5451   -0.3996 N   0  0  0  0  0  0  0  0  0  0  0  0
   -0.1475    0.1802    0.5668 C   0  0  2  0  0  0  0  0  0  0  0  0
   -0.9217    0.4823    1.8740 C   0  0  0  0  0  0  0  0  0  0  0  0
   -0.9977    1.5907    2.3632 O   0  0  0  0  0  0  0  0  0  0  0  0
    0.4823    1.4485   -0.0359 C   0  0  2  0  0  0  0  0  0  0  0  0
   -0.4311    2.2401   -0.9838 C   0  0  2  0  0  0  0  0  0  0  0  0
    1.7784    1.0905   -0.7635 C   0  0  1  0  0  0  0  0  0  0  0  0
   -1.7752    2.6364   -0.3835 C   0  0  2  0  0  0  0  0  0  0  0  0
   -1.3608   -0.0017   -1.1406 H   0  0  0  0  0  0  0  0  0  0  0  0
    0.6602   -0.5014    0.8714 H   0  0  0  0  0  0  0  0  0  0  0  0
    0.7150    2.0971    0.8145 H   0  0  0  0  0  0  0  0  0  0  0  0
   -0.5806    1.6848   -1.9161 H   0  0  0  0  0  0  0  0  0  0  0  0
    0.1059    3.1524   -1.2540 H   0  0  0  0  0  0  0  0  0  0  0  0
    2.2357    1.9822   -1.1856 H   0  0  0  0  0  0  0  0  0  0  0  0
    2.4914    0.6328   -0.0821 H   0  0  0  0  0  0  0  0  0  0  0  0
    1.5808    0.3910   -1.5742 H   0  0  0  0  0  0  0  0  0  0  0  0
   -2.4021    1.7707   -0.1816 H   0  0  0  0  0  0  0  0  0  0  0  0
   -2.3101    3.2935   -1.0667 H   0  0  0  0  0  0  0  0  0  0  0  0
   -1.6235    3.1570    0.5573 H   0  0  0  0  0  0  0  0  0  0  0  0
   -1.4530   -0.6221    2.4205 N   0  0  0  0  0  0  0  0  0  0  0  0
   -1.2420   -1.5249    2.0073 H   0  0  0  0  0  0  0  0  0  0  0  0
   -2.1743   -0.5977    3.6690 C   0  0  1  0  0  0  0  0  0  0  0  0
   -1.6419   -1.1668    4.4333 H   0  0  0  0  0  0  0  0  0  0  0  0
   -2.2590    0.4405    3.9864 H   0  0  0  0  0  0  0  0  0  0  0  0
   -3.1714   -1.0228    3.5401 H   0  0  0  0  0  0  0  0  0  0  0  0
   -1.1120   -1.8804   -0.3978 C   0  0  0  0  0  0  0  0  0  0  0  0
   -0.6983   -2.5924    0.5027 O   0  0  0  0  0  0  0  0  0  0  0  0
   -1.8647   -2.4116   -1.5970 C   0  0  2  0  0  0  0  0  0  0  0  0
   -2.8599   -1.9734   -1.6377 H   0  0  0  0  0  0  0  0  0  0  0  0
   -1.9522   -3.4910   -1.5156 H   0  0  0  0  0  0  0  0  0  0  0  0
   -1.3350   -2.1632   -2.5142 H   0  0  0  0  0  0  0  0  0  0  0  0
  1  2  1  0
  1 26  1  0
  1  9  1  0
  2 10  1  1
  2  5  1  0
  2  3  1  0
  3 20  1  0
  3  4  1  0
  5  7  1  0
  5  6  1  0
  5 11  1  1
  6 13  1  6
  6  8  1  0
  6 12  1  0
  7 15  1  1
  7 16  1  0
  7 14  1  0
  8 19  1  1
  8 18  1  0
  8 17  1  0
 20 21  1  0
 20 22  1  0
 22 23  1  1
 22 24  1  0
 22 25  1  0
 26 27  1  0
 26 28  1  0
 28 30  1  1
 28 29  1  0
 28 31  1  0
M  END
$$$$
