Coordinates from ORCA-job xas
     RDKit          3D

 33 32  0  0  0  0  0  0  0  0999 V2000
   -1.4040   -1.2070   -0.3310 N   0  0  0  0  0  0  0  0  0  0  0  0
   -0.5030   -0.2870    0.3520 C   0  0  2  0  0  0  0  0  0  0  0  0
   -0.7230    1.1280   -0.2000 C   0  0  0  0  0  0  0  0  0  0  0  0
    0.0220    1.6320   -1.0350 O   0  0  0  0  0  0  0  0  0  0  0  0
    0.9360   -0.7290    0.1710 C   0  0  1  0  0  0  0  0  0  0  0  0
    1.8930    0.0700    1.0480 C   0  0  2  0  0  0  0  0  0  0  0  0
   -1.0690   -1.6770   -1.1560 H   0  0  0  0  0  0  0  0  0  0  0  0
   -0.7840   -0.3080    1.4060 H   0  0  0  0  0  0  0  0  0  0  0  0
    1.0090   -1.7900    0.4200 H   0  0  0  0  0  0  0  0  0  0  0  0
    1.5930   -0.0480    2.0920 H   0  0  0  0  0  0  0  0  0  0  0  0
    1.8000    1.1290    0.8040 H   0  0  0  0  0  0  0  0  0  0  0  0
   -1.8180    1.7360    0.3070 N   0  0  0  0  0  0  0  0  0  0  0  0
   -2.4570    1.1480    0.8290 H   0  0  0  0  0  0  0  0  0  0  0  0
   -2.2650    3.0090   -0.2190 C   0  0  2  0  0  0  0  0  0  0  0  0
   -2.8360    2.8930   -1.1410 H   0  0  0  0  0  0  0  0  0  0  0  0
   -1.3940    3.6200   -0.4340 H   0  0  0  0  0  0  0  0  0  0  0  0
   -2.8840    3.5060    0.5220 H   0  0  0  0  0  0  0  0  0  0  0  0
   -2.6950   -1.3650    0.0460 C   0  0  0  0  0  0  0  0  0  0  0  0
   -3.1890   -0.7350    0.9820 O   0  0  0  0  0  0  0  0  0  0  0  0
   -3.4910   -2.3770   -0.7380 C   0  0  2  0  0  0  0  0  0  0  0  0
   -4.3720   -1.8850   -1.1450 H   0  0  0  0  0  0  0  0  0  0  0  0
   -3.8310   -3.1500   -0.0540 H   0  0  0  0  0  0  0  0  0  0  0  0
   -2.9270   -2.8350   -1.5460 H   0  0  0  0  0  0  0  0  0  0  0  0
    1.1990   -0.6040   -0.8800 H   0  0  0  0  0  0  0  0  0  0  0  0
    3.3480   -0.3610    0.8910 C   0  0  2  0  0  0  0  0  0  0  0  0
    3.4550   -1.4280    1.0950 H   0  0  0  0  0  0  0  0  0  0  0  0
    3.9550    0.1610    1.6350 H   0  0  0  0  0  0  0  0  0  0  0  0
    3.9200   -0.0650   -0.4860 C   0  0  2  0  0  0  0  0  0  0  0  0
    3.7430    0.9920   -0.7210 H   0  0  0  0  0  0  0  0  0  0  0  0
    3.3920   -0.6470   -1.2410 H   0  0  0  0  0  0  0  0  0  0  0  0
    5.3280   -0.4610   -0.5300 N   0  0  0  0  0  0  0  0  0  0  0  0
    5.7100   -0.2740   -1.4490 H   0  0  0  0  0  0  0  0  0  0  0  0
    5.8570    0.1190    0.1100 H   0  0  0  0  0  0  0  0  0  0  0  0
  1  7  1  0
  1 18  1  0
  1  2  1  0
  2  3  1  0
  2  5  1  0
  2  8  1  1
  3  4  1  0
  3 12  1  0
  5 24  1  6
  5  9  1  0
  5  6  1  0
  6 11  1  6
  6 25  1  0
  6 10  1  0
 12 14  1  0
 12 13  1  0
 14 15  1  6
 14 16  1  0
 14 17  1  0
 18 20  1  0
 18 19  1  0
 20 23  1  6
 20 21  1  0
 20 22  1  0
 25 28  1  0
 25 26  1  1
 25 27  1  0
 28 30  1  6
 28 29  1  0
 28 31  1  0
 31 32  1  0
 31 33  1  0
M  END
$$$$
