-46.42035465
     RDKit          3D

 28 27  0  0  1  0  0  0  0  0999 V2000
    1.6029    0.5595   -0.7958 N   0  0  0  0  0  0  0  0  0  0  0  0
    1.7744    1.1241   -1.6160 H   0  0  0  0  0  0  0  0  0  0  0  0
    0.2484    0.0814   -0.6054 C   0  0  1  0  0  0  0  0  0  0  0  0
   -0.3603    0.5417   -1.3910 H   0  0  0  0  0  0  0  0  0  0  0  0
    0.1205   -1.4456   -0.7296 C   0  0  2  0  0  0  0  0  0  0  0  0
   -0.3454    0.5627    0.7321 C   0  0  0  0  0  0  0  0  0  0  0  0
    0.2084   -1.8948    0.2603 H   0  0  0  0  0  0  0  0  0  0  0  0
    0.9212   -1.8226   -1.3670 H   0  0  0  0  0  0  0  0  0  0  0  0
   -1.2344   -1.8433   -1.3318 C   0  0  2  0  0  0  0  0  0  0  0  0
   -0.7183   -0.2069    1.5983 O   0  0  0  0  0  0  0  0  0  0  0  0
   -1.3390   -2.9270   -1.3178 H   0  0  0  0  0  0  0  0  0  0  0  0
   -1.3133   -1.4744   -2.3555 H   0  0  0  0  0  0  0  0  0  0  0  0
   -2.3391   -1.2275   -0.5051 C   0  0  0  0  0  0  0  0  0  0  0  0
   -2.7832   -2.0563    0.4310 O   0  0  0  0  0  0  0  0  0  0  0  0
   -2.7655   -0.1116   -0.6616 O   0  0  0  0  0  0  0  0  0  0  0  0
    2.7170    0.3841   -0.0351 C   0  0  0  0  0  0  0  0  0  0  0  0
    2.6153   -0.5228    1.1622 C   0  0  2  0  0  0  0  0  0  0  0  0
    3.7457    0.9418   -0.3604 O   0  0  0  0  0  0  0  0  0  0  0  0
    3.4576   -0.3242    1.8194 H   0  0  0  0  0  0  0  0  0  0  0  0
    2.6776   -1.5562    0.8267 H   0  0  0  0  0  0  0  0  0  0  0  0
    1.6857   -0.3884    1.7038 H   0  0  0  0  0  0  0  0  0  0  0  0
   -0.4334    1.8916    0.8996 N   0  0  0  0  0  0  0  0  0  0  0  0
   -0.0803    2.9362   -0.0301 C   0  0  1  0  0  0  0  0  0  0  0  0
   -0.8354    2.1735    1.7824 H   0  0  0  0  0  0  0  0  0  0  0  0
   -0.5202    2.7466   -1.0107 H   0  0  0  0  0  0  0  0  0  0  0  0
   -0.4695    3.8806    0.3417 H   0  0  0  0  0  0  0  0  0  0  0  0
    1.0038    3.0229   -0.1349 H   0  0  0  0  0  0  0  0  0  0  0  0
   -3.4024   -1.6077    1.0279 H   0  0  0  0  0  0  0  0  0  0  0  0
  1  3  1  0
  1 16  1  0
  2  1  1  0
  3  4  1  6
  3  6  1  0
  5  3  1  0
  5  7  1  1
  6 22  1  0
  6 10  2  0
  8  5  1  0
  9 11  1  6
  9  5  1  0
  9 13  1  0
 12  9  1  0
 13 14  1  0
 14 28  1  0
 15 13  2  0
 16 17  1  0
 17 21  1  1
 17 19  1  0
 18 16  2  0
 20 17  1  0
 22 24  1  0
 23 26  1  1
 23 22  1  0
 25 23  1  0
 27 23  1  0
M  END
$$$$
