-46.42331504
     RDKit          3D

 28 27  0  0  1  0  0  0  0  0999 V2000
    1.4049   -0.1470    0.7665 N   0  0  0  0  0  0  0  0  0  0  0  0
    1.6968   -0.1027    1.7371 H   0  0  0  0  0  0  0  0  0  0  0  0
    0.0962    0.4031    0.5259 C   0  0  1  0  0  0  0  0  0  0  0  0
   -0.0231    0.6242   -0.5329 H   0  0  0  0  0  0  0  0  0  0  0  0
   -0.9959   -0.5818    0.9926 C   0  0  2  0  0  0  0  0  0  0  0  0
   -0.0540    1.6800    1.3653 C   0  0  0  0  0  0  0  0  0  0  0  0
   -1.9673   -0.0866    0.9547 H   0  0  0  0  0  0  0  0  0  0  0  0
   -0.7889   -0.8533    2.0284 H   0  0  0  0  0  0  0  0  0  0  0  0
   -1.0362   -1.8415    0.1336 C   0  0  2  0  0  0  0  0  0  0  0  0
    0.5477    1.8172    2.4113 O   0  0  0  0  0  0  0  0  0  0  0  0
   -1.6871   -2.5945    0.5827 H   0  0  0  0  0  0  0  0  0  0  0  0
   -0.0419   -2.2854    0.0507 H   0  0  0  0  0  0  0  0  0  0  0  0
   -1.5566   -1.5655   -1.2535 C   0  0  0  0  0  0  0  0  0  0  0  0
   -1.5661   -2.6662   -2.0084 O   0  0  0  0  0  0  0  0  0  0  0  0
   -1.9290   -0.4961   -1.6640 O   0  0  0  0  0  0  0  0  0  0  0  0
    2.3702   -0.4931   -0.1167 C   0  0  0  0  0  0  0  0  0  0  0  0
    2.0194   -0.3947   -1.5887 C   0  0  2  0  0  0  0  0  0  0  0  0
    3.4536   -0.8796    0.2679 O   0  0  0  0  0  0  0  0  0  0  0  0
    1.1154   -0.9502   -1.8238 H   0  0  0  0  0  0  0  0  0  0  0  0
    2.8480   -0.8002   -2.1624 H   0  0  0  0  0  0  0  0  0  0  0  0
    1.8780    0.6479   -1.8669 H   0  0  0  0  0  0  0  0  0  0  0  0
   -0.9212    2.6083    0.9216 N   0  0  0  0  0  0  0  0  0  0  0  0
   -1.6338    2.6658   -0.3341 C   0  0  1  0  0  0  0  0  0  0  0  0
   -0.9628    3.4398    1.4963 H   0  0  0  0  0  0  0  0  0  0  0  0
   -1.9118    1.6730   -0.6801 H   0  0  0  0  0  0  0  0  0  0  0  0
   -2.5437    3.2466   -0.1921 H   0  0  0  0  0  0  0  0  0  0  0  0
   -1.0316    3.1521   -1.1077 H   0  0  0  0  0  0  0  0  0  0  0  0
   -1.9139   -2.4781   -2.8948 H   0  0  0  0  0  0  0  0  0  0  0  0
  1  2  1  0
  3  4  1  6
  3  1  1  0
  3  5  1  0
  3  6  1  0
  5  8  1  1
  6 10  2  0
  7  5  1  0
  9 11  1  1
  9  5  1  0
 12  9  1  0
 13  9  1  0
 14 13  1  0
 15 13  2  0
 16 18  2  0
 16  1  1  0
 17 16  1  0
 17 19  1  1
 20 17  1  0
 21 17  1  0
 22  6  1  0
 22 24  1  0
 23 26  1  1
 23 22  1  0
 25 23  1  0
 27 23  1  0
 28 14  1  0
M  END
$$$$
