-46.41844917
     RDKit          3D

 28 27  0  0  1  0  0  0  0  0999 V2000
    1.1211   -0.1680    0.4122 N   0  0  0  0  0  0  0  0  0  0  0  0
    0.6611   -0.6069    1.1984 H   0  0  0  0  0  0  0  0  0  0  0  0
    0.2807    0.4664   -0.5715 C   0  0  1  0  0  0  0  0  0  0  0  0
    0.6831    0.2665   -1.5733 H   0  0  0  0  0  0  0  0  0  0  0  0
   -1.1411   -0.0989   -0.5068 C   0  0  2  0  0  0  0  0  0  0  0  0
    0.2244    2.0025   -0.4674 C   0  0  0  0  0  0  0  0  0  0  0  0
   -1.7781    0.4797   -1.1771 H   0  0  0  0  0  0  0  0  0  0  0  0
   -1.5428    0.0024    0.5036 H   0  0  0  0  0  0  0  0  0  0  0  0
   -1.1837   -1.5764   -0.8968 C   0  0  2  0  0  0  0  0  0  0  0  0
    0.2302    2.6772   -1.4790 O   0  0  0  0  0  0  0  0  0  0  0  0
   -0.3226   -2.0992   -0.4699 H   0  0  0  0  0  0  0  0  0  0  0  0
   -1.1543   -1.7168   -1.9767 H   0  0  0  0  0  0  0  0  0  0  0  0
   -2.4152   -2.2537   -0.3452 C   0  0  0  0  0  0  0  0  0  0  0  0
   -2.7668   -3.3140   -1.0770 O   0  0  0  0  0  0  0  0  0  0  0  0
   -3.0113   -1.9151    0.6413 O   0  0  0  0  0  0  0  0  0  0  0  0
    2.4738   -0.0990    0.5106 C   0  0  0  0  0  0  0  0  0  0  0  0
    3.1874    0.5773   -0.6328 C   0  0  2  0  0  0  0  0  0  0  0  0
    3.0404   -0.5797    1.4705 O   0  0  0  0  0  0  0  0  0  0  0  0
    4.2466    0.6366   -0.4000 H   0  0  0  0  0  0  0  0  0  0  0  0
    2.7931    1.5763   -0.8016 H   0  0  0  0  0  0  0  0  0  0  0  0
    3.0562   -0.0027   -1.5443 H   0  0  0  0  0  0  0  0  0  0  0  0
    0.1459    2.5835    0.7441 N   0  0  0  0  0  0  0  0  0  0  0  0
    0.1338    2.0032    2.0673 C   0  0  1  0  0  0  0  0  0  0  0  0
    0.1370    3.5934    0.6965 H   0  0  0  0  0  0  0  0  0  0  0  0
    1.1178    1.6213    2.3505 H   0  0  0  0  0  0  0  0  0  0  0  0
   -0.1521    2.7757    2.7777 H   0  0  0  0  0  0  0  0  0  0  0  0
   -0.5958    1.1966    2.1354 H   0  0  0  0  0  0  0  0  0  0  0  0
   -3.5434   -3.7540   -0.6958 H   0  0  0  0  0  0  0  0  0  0  0  0
  1 16  1  0
  1  2  1  0
  3  4  1  6
  3  5  1  0
  3  6  1  0
  3  1  1  0
  5  8  1  1
  6 22  1  0
  7  5  1  0
  9  5  1  0
  9 11  1  1
  9 13  1  0
 10  6  2  0
 12  9  1  0
 13 15  2  0
 14 28  1  0
 14 13  1  0
 16 18  2  0
 17 19  1  1
 17 16  1  0
 20 17  1  0
 21 17  1  0
 22 23  1  0
 23 27  1  6
 23 25  1  0
 23 26  1  0
 24 22  1  0
M  END
$$$$
