-46.41792571
     RDKit          3D

 28 27  0  0  1  0  0  0  0  0999 V2000
    1.6478    0.3423    0.5861 N   0  0  0  0  0  0  0  0  0  0  0  0
    1.7577    0.1954    1.5812 H   0  0  0  0  0  0  0  0  0  0  0  0
    0.2839    0.4551    0.1156 C   0  0  1  0  0  0  0  0  0  0  0  0
    0.2899    0.8998   -0.8842 H   0  0  0  0  0  0  0  0  0  0  0  0
   -0.4054   -0.9146    0.0698 C   0  0  2  0  0  0  0  0  0  0  0  0
   -0.4645    1.4032    1.0676 C   0  0  0  0  0  0  0  0  0  0  0  0
   -0.5155   -1.2880    1.0886 H   0  0  0  0  0  0  0  0  0  0  0  0
    0.2220   -1.6180   -0.4801 H   0  0  0  0  0  0  0  0  0  0  0  0
   -1.7814   -0.8425   -0.5827 C   0  0  2  0  0  0  0  0  0  0  0  0
   -1.3399    1.0249    1.8178 O   0  0  0  0  0  0  0  0  0  0  0  0
   -1.7332   -0.3265   -1.5459 H   0  0  0  0  0  0  0  0  0  0  0  0
   -2.4797   -0.2961    0.0522 H   0  0  0  0  0  0  0  0  0  0  0  0
   -2.3454   -2.2167   -0.8417 C   0  0  0  0  0  0  0  0  0  0  0  0
   -3.6346   -2.1564   -1.2011 O   0  0  0  0  0  0  0  0  0  0  0  0
   -1.7441   -3.2526   -0.7656 O   0  0  0  0  0  0  0  0  0  0  0  0
    2.7830    0.1562   -0.1379 C   0  0  0  0  0  0  0  0  0  0  0  0
    2.6432    0.2156   -1.6423 C   0  0  2  0  0  0  0  0  0  0  0  0
    3.8444   -0.0108    0.4222 O   0  0  0  0  0  0  0  0  0  0  0  0
    3.6180    0.0267   -2.0826 H   0  0  0  0  0  0  0  0  0  0  0  0
    2.2986    1.1979   -1.9584 H   0  0  0  0  0  0  0  0  0  0  0  0
    1.9416   -0.5380   -1.9906 H   0  0  0  0  0  0  0  0  0  0  0  0
   -0.0766    2.6935    1.0405 N   0  0  0  0  0  0  0  0  0  0  0  0
    0.9165    3.3079    0.1924 C   0  0  1  0  0  0  0  0  0  0  0  0
   -0.5764    3.2923    1.6824 H   0  0  0  0  0  0  0  0  0  0  0  0
    1.0425    4.3441    0.4948 H   0  0  0  0  0  0  0  0  0  0  0  0
    1.8778    2.8006    0.2841 H   0  0  0  0  0  0  0  0  0  0  0  0
    0.6050    3.2920   -0.8561 H   0  0  0  0  0  0  0  0  0  0  0  0
   -3.9828   -3.0471   -1.3650 H   0  0  0  0  0  0  0  0  0  0  0  0
  1  2  1  0
  3  4  1  6
  3  1  1  0
  3  6  1  0
  5  3  1  0
  5  7  1  1
  6 10  2  0
  8  5  1  0
  9 12  1  1
  9  5  1  0
 11  9  1  0
 13 15  2  0
 13  9  1  0
 14 13  1  0
 16 18  2  0
 16  1  1  0
 17 16  1  0
 17 19  1  6
 20 17  1  0
 21 17  1  0
 22  6  1  0
 22 24  1  0
 23 26  1  6
 23 25  1  0
 23 22  1  0
 27 23  1  0
 28 14  1  0
M  END
$$$$
