-46.41758296
     RDKit          3D

 28 27  0  0  1  0  0  0  0  0999 V2000
    1.5343   -0.2503    0.3659 N   0  0  0  0  0  0  0  0  0  0  0  0
    1.1817   -0.7736    1.1624 H   0  0  0  0  0  0  0  0  0  0  0  0
    0.5563    0.6147   -0.2394 C   0  0  1  0  0  0  0  0  0  0  0  0
    1.0353    1.5458   -0.5593 H   0  0  0  0  0  0  0  0  0  0  0  0
   -0.1130   -0.0499   -1.4647 C   0  0  2  0  0  0  0  0  0  0  0  0
   -0.4900    0.9254    0.8384 C   0  0  0  0  0  0  0  0  0  0  0  0
    0.6442   -0.1751   -2.2408 H   0  0  0  0  0  0  0  0  0  0  0  0
   -0.8945    0.6024   -1.8525 H   0  0  0  0  0  0  0  0  0  0  0  0
   -0.6967   -1.4245   -1.1464 C   0  0  2  0  0  0  0  0  0  0  0  0
   -0.6232    0.2061    1.8079 O   0  0  0  0  0  0  0  0  0  0  0  0
    0.0393   -2.0520   -0.6421 H   0  0  0  0  0  0  0  0  0  0  0  0
   -0.9652   -1.9243   -2.0820 H   0  0  0  0  0  0  0  0  0  0  0  0
   -1.9523   -1.4190   -0.3080 C   0  0  0  0  0  0  0  0  0  0  0  0
   -2.6881   -0.3020   -0.4565 O   0  0  0  0  0  0  0  0  0  0  0  0
   -2.3172   -2.3328    0.3750 O   0  0  0  0  0  0  0  0  0  0  0  0
    2.8581   -0.3613    0.1093 C   0  0  0  0  0  0  0  0  0  0  0  0
    3.4036    0.5122   -1.0031 C   0  0  2  0  0  0  0  0  0  0  0  0
    3.5547   -1.1244    0.7422 O   0  0  0  0  0  0  0  0  0  0  0  0
    4.4526    0.2694   -1.1453 H   0  0  0  0  0  0  0  0  0  0  0  0
    3.3211    1.5620   -0.7277 H   0  0  0  0  0  0  0  0  0  0  0  0
    2.8680    0.3455   -1.9337 H   0  0  0  0  0  0  0  0  0  0  0  0
   -1.2325    2.0404    0.6957 N   0  0  0  0  0  0  0  0  0  0  0  0
   -1.3375    2.9451   -0.4206 C   0  0  1  0  0  0  0  0  0  0  0  0
   -1.9292    2.1539    1.4202 H   0  0  0  0  0  0  0  0  0  0  0  0
   -0.3855    3.0340   -0.9389 H   0  0  0  0  0  0  0  0  0  0  0  0
   -2.0972    2.6103   -1.1334 H   0  0  0  0  0  0  0  0  0  0  0  0
   -1.6199    3.9298   -0.0501 H   0  0  0  0  0  0  0  0  0  0  0  0
   -3.4831   -0.3728    0.0949 H   0  0  0  0  0  0  0  0  0  0  0  0
  1  2  1  0
  3  4  1  6
  3  1  1  0
  3  6  1  0
  5  9  1  0
  5  3  1  0
  6 10  2  0
  5  7  1  6
  8  5  1  0
  9 11  1  1
  9 13  1  0
 12  9  1  0
 13 15  2  0
 14 13  1  0
 14 28  1  0
 16  1  1  0
 16 18  2  0
 17 20  1  1
 17 16  1  0
 19 17  1  0
 21 17  1  0
 22  6  1  0
 22 24  1  0
 23 27  1  1
 23 22  1  0
 25 23  1  0
 26 23  1  0
M  END
$$$$
