-46.41749243
     RDKit          3D

 28 27  0  0  1  0  0  0  0  0999 V2000
    1.0258   -0.3711    0.0676 N   0  0  0  0  0  0  0  0  0  0  0  0
    0.4369   -0.9918    0.6053 H   0  0  0  0  0  0  0  0  0  0  0  0
    0.4086    0.4272   -0.9559 C   0  0  1  0  0  0  0  0  0  0  0  0
    1.1730    0.6577   -1.7091 H   0  0  0  0  0  0  0  0  0  0  0  0
   -0.7039   -0.3206   -1.7133 C   0  0  2  0  0  0  0  0  0  0  0  0
   -0.1236    1.8121   -0.5339 C   0  0  0  0  0  0  0  0  0  0  0  0
   -0.3123   -1.2735   -2.0740 H   0  0  0  0  0  0  0  0  0  0  0  0
   -0.9540    0.2962   -2.5776 H   0  0  0  0  0  0  0  0  0  0  0  0
   -2.0007   -0.5626   -0.9233 C   0  0  2  0  0  0  0  0  0  0  0  0
   -0.2940    2.6524   -1.3999 O   0  0  0  0  0  0  0  0  0  0  0  0
   -2.7959   -0.7949   -1.6320 H   0  0  0  0  0  0  0  0  0  0  0  0
   -2.2674    0.3314   -0.3598 H   0  0  0  0  0  0  0  0  0  0  0  0
   -1.8730   -1.7326    0.0176 C   0  0  0  0  0  0  0  0  0  0  0  0
   -2.1307   -2.8900   -0.5866 O   0  0  0  0  0  0  0  0  0  0  0  0
   -1.5576   -1.6645    1.1790 O   0  0  0  0  0  0  0  0  0  0  0  0
    2.2921   -0.2527    0.5421 C   0  0  0  0  0  0  0  0  0  0  0  0
    3.1861    0.7460   -0.1569 C   0  0  2  0  0  0  0  0  0  0  0  0
    2.6636   -0.9324    1.4762 O   0  0  0  0  0  0  0  0  0  0  0  0
    4.1327    0.7915    0.3741 H   0  0  0  0  0  0  0  0  0  0  0  0
    2.7288    1.7328   -0.1707 H   0  0  0  0  0  0  0  0  0  0  0  0
    3.3730    0.4313   -1.1817 H   0  0  0  0  0  0  0  0  0  0  0  0
   -0.4047    2.0988    0.7492 N   0  0  0  0  0  0  0  0  0  0  0  0
   -0.3128    1.3123    1.9615 C   0  0  1  0  0  0  0  0  0  0  0  0
   -0.7025    3.0586    0.8660 H   0  0  0  0  0  0  0  0  0  0  0  0
   -0.7943    1.8696    2.7618 H   0  0  0  0  0  0  0  0  0  0  0  0
   -0.8245    0.3560    1.8580 H   0  0  0  0  0  0  0  0  0  0  0  0
    0.7249    1.1287    2.2472 H   0  0  0  0  0  0  0  0  0  0  0  0
   -2.0191   -3.6363    0.0247 H   0  0  0  0  0  0  0  0  0  0  0  0
  1 16  1  0
  1  2  1  0
  3  4  1  6
  3  6  1  0
  3  1  1  0
  5  3  1  0
  5  9  1  0
  6 22  1  0
  5  7  1  6
  8  5  1  0
  9 12  1  1
  9 13  1  0
 10  6  2  0
 11  9  1  0
 13 15  2  0
 14 13  1  0
 14 28  1  0
 16 18  2  0
 17 19  1  1
 17 16  1  0
 20 17  1  0
 21 17  1  0
 22 24  1  0
 22 23  1  0
 23 27  1  1
 23 25  1  0
 26 23  1  0
M  END
$$$$
