-46.41709815
     RDKit          3D

 28 27  0  0  1  0  0  0  0  0999 V2000
    1.5867   -0.0291    0.5049 N   0  0  0  0  0  0  0  0  0  0  0  0
    1.4112   -0.4032    1.4316 H   0  0  0  0  0  0  0  0  0  0  0  0
    0.5120    0.7698   -0.0205 C   0  0  1  0  0  0  0  0  0  0  0  0
    0.9158    1.5675   -0.6494 H   0  0  0  0  0  0  0  0  0  0  0  0
   -0.4910   -0.0725   -0.8446 C   0  0  2  0  0  0  0  0  0  0  0  0
   -0.2369    1.3686    1.1758 C   0  0  0  0  0  0  0  0  0  0  0  0
   -0.0202   -0.3798   -1.7802 H   0  0  0  0  0  0  0  0  0  0  0  0
   -1.3607    0.5410   -1.0840 H   0  0  0  0  0  0  0  0  0  0  0  0
   -0.9474   -1.3165   -0.0791 C   0  0  2  0  0  0  0  0  0  0  0  0
   -0.2948    0.7849    2.2397 O   0  0  0  0  0  0  0  0  0  0  0  0
   -1.2627   -1.0288    0.9275 H   0  0  0  0  0  0  0  0  0  0  0  0
   -0.1376   -2.0409    0.0063 H   0  0  0  0  0  0  0  0  0  0  0  0
   -2.1205   -1.9912   -0.7418 C   0  0  0  0  0  0  0  0  0  0  0  0
   -3.1124   -1.1303   -1.0247 O   0  0  0  0  0  0  0  0  0  0  0  0
   -2.2030   -3.1619   -0.9901 O   0  0  0  0  0  0  0  0  0  0  0  0
    2.7883   -0.3220   -0.0446 C   0  0  0  0  0  0  0  0  0  0  0  0
    3.0628    0.2708   -1.4116 C   0  0  2  0  0  0  0  0  0  0  0  0
    3.5889   -1.0159    0.5433 O   0  0  0  0  0  0  0  0  0  0  0  0
    4.0276   -0.0911   -1.7545 H   0  0  0  0  0  0  0  0  0  0  0  0
    3.0966    1.3569   -1.3501 H   0  0  0  0  0  0  0  0  0  0  0  0
    2.2966   -0.0216   -2.1245 H   0  0  0  0  0  0  0  0  0  0  0  0
   -0.8667    2.5431    0.9851 N   0  0  0  0  0  0  0  0  0  0  0  0
   -0.8238    3.4041   -0.1725 C   0  0  1  0  0  0  0  0  0  0  0  0
   -1.3373    2.8972    1.8062 H   0  0  0  0  0  0  0  0  0  0  0  0
   -1.5370    4.2123   -0.0315 H   0  0  0  0  0  0  0  0  0  0  0  0
    0.1692    3.8421   -0.3098 H   0  0  0  0  0  0  0  0  0  0  0  0
   -1.0974    2.8607   -1.0774 H   0  0  0  0  0  0  0  0  0  0  0  0
   -3.8592   -1.6051   -1.4220 H   0  0  0  0  0  0  0  0  0  0  0  0
  1  2  1  0
  3  4  1  6
  3  1  1  0
  3  6  1  0
  5  9  1  0
  5  3  1  0
  6 10  2  0
  5  7  1  6
  8  5  1  0
  9 12  1  1
  9 11  1  0
 13  9  1  0
 14 13  1  0
 15 13  2  0
 16  1  1  0
 16 18  2  0
 17 20  1  1
 17 16  1  0
 19 17  1  0
 21 17  1  0
 22  6  1  0
 22 24  1  0
 23 25  1  1
 23 22  1  0
 26 23  1  0
 27 23  1  0
 28 14  1  0
M  END
$$$$
