-46.41620946
     RDKit          3D

 28 27  0  0  1  0  0  0  0  0999 V2000
    1.2466    0.3835   -0.7730 N   0  0  0  0  0  0  0  0  0  0  0  0
    1.1595    0.6653   -1.7395 H   0  0  0  0  0  0  0  0  0  0  0  0
    0.0169    0.1078   -0.0583 C   0  0  1  0  0  0  0  0  0  0  0  0
   -0.8036    0.4214   -0.7128 H   0  0  0  0  0  0  0  0  0  0  0  0
   -0.1640   -1.3832    0.2668 C   0  0  2  0  0  0  0  0  0  0  0  0
   -0.1109    0.9543    1.2214 C   0  0  0  0  0  0  0  0  0  0  0  0
    0.3531   -1.6104    1.1984 H   0  0  0  0  0  0  0  0  0  0  0  0
    0.2705   -1.9820   -0.5356 H   0  0  0  0  0  0  0  0  0  0  0  0
   -1.6425   -1.7547    0.4524 C   0  0  2  0  0  0  0  0  0  0  0  0
   -0.3097    0.4622    2.3148 O   0  0  0  0  0  0  0  0  0  0  0  0
   -2.1067   -1.0416    1.1325 H   0  0  0  0  0  0  0  0  0  0  0  0
   -1.7056   -2.7578    0.8735 H   0  0  0  0  0  0  0  0  0  0  0  0
   -2.3717   -1.7629   -0.8646 C   0  0  0  0  0  0  0  0  0  0  0  0
   -2.8161   -0.5420   -1.2166 O   0  0  0  0  0  0  0  0  0  0  0  0
   -2.5413   -2.7230   -1.5642 O   0  0  0  0  0  0  0  0  0  0  0  0
    2.5420    0.3220   -0.3615 C   0  0  0  0  0  0  0  0  0  0  0  0
    2.8191   -0.1977    1.0243 C   0  0  2  0  0  0  0  0  0  0  0  0
    3.4191    0.6701   -1.1256 O   0  0  0  0  0  0  0  0  0  0  0  0
    2.8115   -1.2857    0.9959 H   0  0  0  0  0  0  0  0  0  0  0  0
    2.0864    0.1382    1.7494 H   0  0  0  0  0  0  0  0  0  0  0  0
    3.8117    0.1280    1.3241 H   0  0  0  0  0  0  0  0  0  0  0  0
   -0.0217    2.2889    1.0673 N   0  0  0  0  0  0  0  0  0  0  0  0
    0.2026    3.0479   -0.1387 C   0  0  1  0  0  0  0  0  0  0  0  0
   -0.0774    2.8090    1.9319 H   0  0  0  0  0  0  0  0  0  0  0  0
   -0.4133    2.6649   -0.9529 H   0  0  0  0  0  0  0  0  0  0  0  0
   -0.0773    4.0831    0.0438 H   0  0  0  0  0  0  0  0  0  0  0  0
    1.2514    3.0182   -0.4451 H   0  0  0  0  0  0  0  0  0  0  0  0
   -3.2891   -0.5906   -2.0631 H   0  0  0  0  0  0  0  0  0  0  0  0
  1 16  1  0
  1  3  1  0
  2  1  1  0
  3  4  1  6
  3  5  1  0
  3  6  1  0
  5  9  1  0
  5  7  1  1
  6 10  2  0
  8  5  1  0
  9 12  1  1
  9 11  1  0
 13  9  1  0
 14 13  1  0
 15 13  2  0
 16 17  1  0
 17 21  1  1
 17 20  1  0
 18 16  2  0
 19 17  1  0
 22  6  1  0
 22 24  1  0
 23 26  1  1
 23 22  1  0
 25 23  1  0
 27 23  1  0
 28 14  1  0
M  END
$$$$
