-46.41611721
     RDKit          3D

 28 27  0  0  1  0  0  0  0  0999 V2000
    1.0101    0.5450   -0.7595 N   0  0  0  0  0  0  0  0  0  0  0  0
    1.2190    0.7524   -1.7263 H   0  0  0  0  0  0  0  0  0  0  0  0
   -0.3023    0.9250   -0.2782 C   0  0  1  0  0  0  0  0  0  0  0  0
   -0.7885    1.4733   -1.0950 H   0  0  0  0  0  0  0  0  0  0  0  0
   -1.1825   -0.2789    0.0833 C   0  0  2  0  0  0  0  0  0  0  0  0
   -0.2282    1.8937    0.9173 C   0  0  0  0  0  0  0  0  0  0  0  0
   -2.1697    0.0917    0.3599 H   0  0  0  0  0  0  0  0  0  0  0  0
   -0.7750   -0.7886    0.9547 H   0  0  0  0  0  0  0  0  0  0  0  0
   -1.2887   -1.2729   -1.0711 C   0  0  2  0  0  0  0  0  0  0  0  0
   -0.8313    1.6976    1.9522 O   0  0  0  0  0  0  0  0  0  0  0  0
   -0.2921   -1.4531   -1.4859 H   0  0  0  0  0  0  0  0  0  0  0  0
   -1.9352   -0.9114   -1.8707 H   0  0  0  0  0  0  0  0  0  0  0  0
   -1.7976   -2.6097   -0.5916 C   0  0  0  0  0  0  0  0  0  0  0  0
   -2.6073   -3.1844   -1.4893 O   0  0  0  0  0  0  0  0  0  0  0  0
   -1.5129   -3.1304    0.4515 O   0  0  0  0  0  0  0  0  0  0  0  0
    2.0649   -0.0210   -0.1097 C   0  0  0  0  0  0  0  0  0  0  0  0
    1.8720   -0.4494    1.3190 C   0  0  2  0  0  0  0  0  0  0  0  0
    3.1076   -0.1735   -0.7141 O   0  0  0  0  0  0  0  0  0  0  0  0
    2.8478   -0.5283    1.7914 H   0  0  0  0  0  0  0  0  0  0  0  0
    1.4105   -1.4358    1.3298 H   0  0  0  0  0  0  0  0  0  0  0  0
    1.2448    0.2366    1.8781 H   0  0  0  0  0  0  0  0  0  0  0  0
    0.5203    3.0026    0.7506 N   0  0  0  0  0  0  0  0  0  0  0  0
    1.2910    3.4201   -0.3953 C   0  0  1  0  0  0  0  0  0  0  0  0
    0.5709    3.5890    1.5722 H   0  0  0  0  0  0  0  0  0  0  0  0
    0.7312    3.2539   -1.3160 H   0  0  0  0  0  0  0  0  0  0  0  0
    1.4954    4.4852   -0.3081 H   0  0  0  0  0  0  0  0  0  0  0  0
    2.2430    2.8866   -0.4595 H   0  0  0  0  0  0  0  0  0  0  0  0
   -2.9053   -4.0526   -1.1739 H   0  0  0  0  0  0  0  0  0  0  0  0
  1  3  1  0
  1 16  1  0
  2  1  1  0
  3  4  1  6
  3  5  1  0
  3  6  1  0
  5  7  1  1
  5  8  1  0
  6 10  2  0
  9 13  1  0
  9  5  1  0
  9 11  1  6
 12  9  1  0
 13 15  2  0
 14 28  1  0
 14 13  1  0
 16 17  1  0
 17 20  1  6
 17 19  1  0
 17 21  1  0
 18 16  2  0
 22  6  1  0
 22 24  1  0
 23 26  1  1
 23 22  1  0
 25 23  1  0
 27 23  1  0
M  END
$$$$
