-46.42195471
     RDKit          3D

 28 27  0  0  1  0  0  0  0  0999 V2000
    1.8078   -0.2779    0.5971 N   0  0  0  0  0  0  0  0  0  0  0  0
    1.7866   -0.5784    1.5617 H   0  0  0  0  0  0  0  0  0  0  0  0
    0.6461   -0.5594   -0.2076 C   0  0  1  0  0  0  0  0  0  0  0  0
    0.9711   -0.9050   -1.1989 H   0  0  0  0  0  0  0  0  0  0  0  0
   -0.1739   -1.6855    0.4386 C   0  0  2  0  0  0  0  0  0  0  0  0
   -0.2480    0.6616   -0.4942 C   0  0  0  0  0  0  0  0  0  0  0  0
   -0.5143   -1.3756    1.4288 H   0  0  0  0  0  0  0  0  0  0  0  0
    0.4736   -2.5572    0.5503 H   0  0  0  0  0  0  0  0  0  0  0  0
   -1.3962   -2.0538   -0.3976 C   0  0  2  0  0  0  0  0  0  0  0  0
   -0.7897    0.7594   -1.5825 O   0  0  0  0  0  0  0  0  0  0  0  0
   -1.7931   -3.0199   -0.0761 H   0  0  0  0  0  0  0  0  0  0  0  0
   -1.1543   -2.1235   -1.4579 H   0  0  0  0  0  0  0  0  0  0  0  0
   -2.5106   -1.0451   -0.2342 C   0  0  0  0  0  0  0  0  0  0  0  0
   -3.3810   -1.1079   -1.2373 O   0  0  0  0  0  0  0  0  0  0  0  0
   -2.6383   -0.3008    0.7029 O   0  0  0  0  0  0  0  0  0  0  0  0
    2.8834    0.4785    0.2589 C   0  0  0  0  0  0  0  0  0  0  0  0
    2.9366    0.9507   -1.1723 C   0  0  2  0  0  0  0  0  0  0  0  0
    3.7383    0.7277    1.0839 O   0  0  0  0  0  0  0  0  0  0  0  0
    2.0268    1.4820   -1.4403 H   0  0  0  0  0  0  0  0  0  0  0  0
    3.0456    0.0965   -1.8379 H   0  0  0  0  0  0  0  0  0  0  0  0
    3.7934    1.6068   -1.2944 H   0  0  0  0  0  0  0  0  0  0  0  0
   -0.4055    1.6137    0.4381 N   0  0  0  0  0  0  0  0  0  0  0  0
   -0.0008    1.6339    1.8248 C   0  0  1  0  0  0  0  0  0  0  0  0
   -1.0461    2.3400    0.1489 H   0  0  0  0  0  0  0  0  0  0  0  0
    1.0775    1.7724    1.9228 H   0  0  0  0  0  0  0  0  0  0  0  0
   -0.4995    2.4667    2.3140 H   0  0  0  0  0  0  0  0  0  0  0  0
   -0.2995    0.7170    2.3336 H   0  0  0  0  0  0  0  0  0  0  0  0
   -4.0732   -0.4356   -1.1379 H   0  0  0  0  0  0  0  0  0  0  0  0
  1  2  1  0
  3  4  1  6
  3  5  1  0
  3  1  1  0
  5  8  1  1
  5  7  1  0
  6  3  1  0
  6 22  1  0
  9 13  1  0
  9 11  1  1
  9  5  1  0
 10  6  2  0
 12  9  1  0
 13 15  2  0
 14 28  1  0
 14 13  1  0
 16  1  1  0
 16 18  2  0
 17 16  1  0
 17 19  1  6
 20 17  1  0
 21 17  1  0
 22 23  1  0
 23 25  1  6
 23 26  1  0
 23 27  1  0
 24 22  1  0
M  END
$$$$
