 energy: -46.279813863217 gnorm: 0.000044097353 xtb: 6.5.1 (9af7eec)
     RDKit          3D

 29 29  0  0  0  0  0  0  0  0999 V2000
    1.4603   -0.7251   -1.9119 N   0  0  0  0  0  0  0  0  0  0  0  0
    1.1818   -0.4401   -2.8442 H   0  0  0  0  0  0  0  0  0  0  0  0
    0.8148    0.0115   -0.8542 C   0  0  1  0  0  0  0  0  0  0  0  0
    0.3786   -0.7048   -0.1445 H   0  0  0  0  0  0  0  0  0  0  0  0
    1.8054    0.9381   -0.0917 C   0  0  1  0  0  0  0  0  0  0  0  0
   -0.3122    0.8295   -1.4890 C   0  0  0  0  0  0  0  0  0  0  0  0
    2.8006    0.7880   -0.5180 H   0  0  0  0  0  0  0  0  0  0  0  0
    1.5388    1.9870   -0.2293 H   0  0  0  0  0  0  0  0  0  0  0  0
    1.8314    0.6112    1.3582 C   0  0  0  0  0  0  0  0  0  0  0  0
   -0.4584    0.8889   -2.6938 O   0  0  0  0  0  0  0  0  0  0  0  0
    2.2093   -0.6306    1.7927 N   0  0  0  0  0  0  0  0  0  0  0  0
    1.4953    1.3078    2.4880 C   0  0  0  0  0  0  0  0  0  0  0  0
    2.4789   -1.3856    1.1671 H   0  0  0  0  0  0  0  0  0  0  0  0
    2.0890   -0.6251    3.1372 C   0  0  0  0  0  0  0  0  0  0  0  0
    1.6647    0.5252    3.5857 N   0  0  0  0  0  0  0  0  0  0  0  0
    1.1567    2.3209    2.5798 H   0  0  0  0  0  0  0  0  0  0  0  0
    2.3187   -1.4711    3.7531 H   0  0  0  0  0  0  0  0  0  0  0  0
    2.2439   -1.7972   -1.6985 C   0  0  0  0  0  0  0  0  0  0  0  0
    2.7420   -2.4586   -2.9610 C   0  0  2  0  0  0  0  0  0  0  0  0
    2.5305   -2.1878   -0.5789 O   0  0  0  0  0  0  0  0  0  0  0  0
    3.4034   -3.2802   -2.7019 H   0  0  0  0  0  0  0  0  0  0  0  0
    3.2797   -1.7389   -3.5739 H   0  0  0  0  0  0  0  0  0  0  0  0
    1.8999   -2.8416   -3.5332 H   0  0  0  0  0  0  0  0  0  0  0  0
   -1.0886    1.4618   -0.5952 N   0  0  0  0  0  0  0  0  0  0  0  0
   -2.1848    2.3191   -0.9781 C   0  0  1  0  0  0  0  0  0  0  0  0
   -0.8848    1.3690    0.3882 H   0  0  0  0  0  0  0  0  0  0  0  0
   -2.0133    3.3405   -0.6345 H   0  0  0  0  0  0  0  0  0  0  0  0
   -2.2468    2.3084   -2.0648 H   0  0  0  0  0  0  0  0  0  0  0  0
   -3.1221    1.9527   -0.5574 H   0  0  0  0  0  0  0  0  0  0  0  0
  1  2  1  0
  1 18  1  0
  1  3  1  0
  3  6  1  0
  3  4  1  1
  3  5  1  0
  5  9  1  0
  5  8  1  1
  5  7  1  0
  6 10  1  0
  6 24  1  0
  9 11  1  0
  9 12  1  0
 11 14  1  0
 11 13  1  0
 12 15  1  0
 12 16  1  0
 14 17  1  0
 14 15  1  0
 18 19  1  0
 18 20  1  0
 19 23  1  6
 19 21  1  0
 19 22  1  0
 24 25  1  0
 24 26  1  0
 25 29  1  1
 25 28  1  0
 25 27  1  0
M  END
$$$$
