-42.46006756
     RDKit          3D

 31 30  0  0  1  0  0  0  0  0999 V2000
   -0.6877   -0.9217    0.5415 N   0  0  0  0  0  0  0  0  0  0  0  0
    0.2615   -0.0007   -0.0305 C   0  0  2  0  0  0  0  0  0  0  0  0
    1.6856   -0.4466    0.3400 C   0  0  0  0  0  0  0  0  0  0  0  0
    1.9023   -1.1313    1.3169 O   0  0  0  0  0  0  0  0  0  0  0  0
    0.0436    1.4243    0.5059 C   0  0  2  0  0  0  0  0  0  0  0  0
   -1.1162    2.1776   -0.1579 C   0  0  1  0  0  0  0  0  0  0  0  0
   -2.4735    1.6007    0.2340 C   0  0  1  0  0  0  0  0  0  0  0  0
   -1.0483    3.6553    0.2262 C   0  0  2  0  0  0  0  0  0  0  0  0
   -0.7579   -0.8945    1.5506 H   0  0  0  0  0  0  0  0  0  0  0  0
    0.1360   -0.0051   -1.1147 H   0  0  0  0  0  0  0  0  0  0  0  0
    0.9613    1.9950    0.3480 H   0  0  0  0  0  0  0  0  0  0  0  0
   -0.1245    1.3689    1.5831 H   0  0  0  0  0  0  0  0  0  0  0  0
   -1.0024    2.1005   -1.2461 H   0  0  0  0  0  0  0  0  0  0  0  0
   -2.5592    0.5578   -0.0555 H   0  0  0  0  0  0  0  0  0  0  0  0
   -2.6158    1.6700    1.3099 H   0  0  0  0  0  0  0  0  0  0  0  0
   -3.2712    2.1585   -0.2515 H   0  0  0  0  0  0  0  0  0  0  0  0
   -0.1070    4.0984   -0.0924 H   0  0  0  0  0  0  0  0  0  0  0  0
   -1.1339    3.7693    1.3044 H   0  0  0  0  0  0  0  0  0  0  0  0
   -1.8604    4.2068   -0.2410 H   0  0  0  0  0  0  0  0  0  0  0  0
    2.6972   -0.0522   -0.4668 N   0  0  0  0  0  0  0  0  0  0  0  0
    3.6108   -0.3317   -0.1337 H   0  0  0  0  0  0  0  0  0  0  0  0
    2.6881    0.8434   -1.5958 C   0  0  1  0  0  0  0  0  0  0  0  0
    1.7323    0.8081   -2.1127 H   0  0  0  0  0  0  0  0  0  0  0  0
    2.8789    1.8775   -1.2906 H   0  0  0  0  0  0  0  0  0  0  0  0
    3.4681    0.5420   -2.2945 H   0  0  0  0  0  0  0  0  0  0  0  0
   -1.2033   -2.0450   -0.0183 C   0  0  0  0  0  0  0  0  0  0  0  0
   -1.8871   -2.8041    0.6339 O   0  0  0  0  0  0  0  0  0  0  0  0
   -0.9290   -2.2554   -1.4937 C   0  0  2  0  0  0  0  0  0  0  0  0
    0.1411   -2.3495   -1.6668 H   0  0  0  0  0  0  0  0  0  0  0  0
   -1.3197   -1.4267   -2.0812 H   0  0  0  0  0  0  0  0  0  0  0  0
   -1.4220   -3.1718   -1.8049 H   0  0  0  0  0  0  0  0  0  0  0  0
  1  9  1  0
  2 10  1  6
  2  3  1  0
  2  5  1  0
  2  1  1  0
  3  4  2  0
  5 12  1  1
  6  8  1  0
  6  7  1  0
  6  5  1  0
  7 15  1  1
  8 18  1  1
 11  5  1  0
  6 13  1  6
 14  7  1  0
 16  7  1  0
 17  8  1  0
 19  8  1  0
 20 21  1  0
 20  3  1  0
 22 24  1  1
 22 20  1  0
 23 22  1  0
 25 22  1  0
 26  1  1  0
 26 27  2  0
 28 26  1  0
 28 29  1  1
 30 28  1  0
 31 28  1  0
M  END
$$$$
