-42.45980213
     RDKit          3D

 31 30  0  0  1  0  0  0  0  0999 V2000
   -0.4622   -1.0285   -1.0134 N   0  0  0  0  0  0  0  0  0  0  0  0
   -0.0298    0.2365   -0.4475 C   0  0  2  0  0  0  0  0  0  0  0  0
    1.3038    0.0669    0.3049 C   0  0  0  0  0  0  0  0  0  0  0  0
    1.4407    0.3305    1.4825 O   0  0  0  0  0  0  0  0  0  0  0  0
   -1.0972    0.8903    0.4438 C   0  0  2  0  0  0  0  0  0  0  0  0
   -1.2365    2.4002    0.2195 C   0  0  1  0  0  0  0  0  0  0  0  0
   -2.3982    2.9312    1.0570 C   0  0  1  0  0  0  0  0  0  0  0  0
    0.0490    3.1390    0.5814 C   0  0  2  0  0  0  0  0  0  0  0  0
   -0.5912   -1.0624   -2.0149 H   0  0  0  0  0  0  0  0  0  0  0  0
    0.1688    0.8986   -1.2977 H   0  0  0  0  0  0  0  0  0  0  0  0
   -0.8390    0.7149    1.4893 H   0  0  0  0  0  0  0  0  0  0  0  0
   -2.0568    0.4130    0.2367 H   0  0  0  0  0  0  0  0  0  0  0  0
   -1.4637    2.5800   -0.8391 H   0  0  0  0  0  0  0  0  0  0  0  0
   -3.3254    2.4246    0.7981 H   0  0  0  0  0  0  0  0  0  0  0  0
   -2.2020    2.7720    2.1147 H   0  0  0  0  0  0  0  0  0  0  0  0
   -2.5329    3.9972    0.8900 H   0  0  0  0  0  0  0  0  0  0  0  0
   -0.0967    4.2138    0.4991 H   0  0  0  0  0  0  0  0  0  0  0  0
    0.8686    2.8565   -0.0752 H   0  0  0  0  0  0  0  0  0  0  0  0
    0.3418    2.9032    1.6011 H   0  0  0  0  0  0  0  0  0  0  0  0
    2.3448   -0.3845   -0.4240 N   0  0  0  0  0  0  0  0  0  0  0  0
    3.1872   -0.5344    0.1140 H   0  0  0  0  0  0  0  0  0  0  0  0
    2.3732   -0.8050   -1.8034 C   0  0  1  0  0  0  0  0  0  0  0  0
    1.8373   -0.0947   -2.4336 H   0  0  0  0  0  0  0  0  0  0  0  0
    3.4086   -0.8417   -2.1354 H   0  0  0  0  0  0  0  0  0  0  0  0
    1.9289   -1.7957   -1.9325 H   0  0  0  0  0  0  0  0  0  0  0  0
   -0.7358   -2.2146   -0.4084 C   0  0  0  0  0  0  0  0  0  0  0  0
   -1.0233   -3.1744   -1.0961 O   0  0  0  0  0  0  0  0  0  0  0  0
   -0.6896   -2.2650    1.0956 C   0  0  2  0  0  0  0  0  0  0  0  0
    0.1516   -1.7146    1.5015 H   0  0  0  0  0  0  0  0  0  0  0  0
   -0.6358   -3.3051    1.4060 H   0  0  0  0  0  0  0  0  0  0  0  0
   -1.6073   -1.8342    1.4912 H   0  0  0  0  0  0  0  0  0  0  0  0
  1  2  1  0
  1 26  1  0
  2 10  1  6
  2  3  1  0
  2  5  1  0
  3  4  2  0
  5 11  1  1
  6  5  1  0
  6  8  1  0
  6  7  1  0
  7 15  1  1
  8 19  1  1
  9  1  1  0
 12  5  1  0
  6 13  1  6
 14  7  1  0
 16  7  1  0
 17  8  1  0
 18  8  1  0
 20 21  1  0
 20  3  1  0
 22 20  1  0
 22 23  1  6
 24 22  1  0
 25 22  1  0
 26 28  1  0
 27 26  2  0
 28 30  1  6
 28 31  1  0
 28 29  1  0
M  END
$$$$
