-42.45966230
     RDKit          3D

 31 30  0  0  1  0  0  0  0  0999 V2000
   -0.3925   -0.9267   -1.0694 N   0  0  0  0  0  0  0  0  0  0  0  0
    0.0475    0.2734   -0.3838 C   0  0  2  0  0  0  0  0  0  0  0  0
    1.3358    0.0288    0.4216 C   0  0  0  0  0  0  0  0  0  0  0  0
    1.4306    0.2805    1.6062 O   0  0  0  0  0  0  0  0  0  0  0  0
   -1.0404    0.8871    0.5094 C   0  0  2  0  0  0  0  0  0  0  0  0
   -0.8985    2.4069    0.6609 C   0  0  1  0  0  0  0  0  0  0  0  0
   -1.3552    3.1437   -0.5963 C   0  0  1  0  0  0  0  0  0  0  0  0
   -1.7125    2.8804    1.8631 C   0  0  2  0  0  0  0  0  0  0  0  0
   -0.5119   -0.8628   -2.0708 H   0  0  0  0  0  0  0  0  0  0  0  0
    0.3089    0.9952   -1.1655 H   0  0  0  0  0  0  0  0  0  0  0  0
   -0.9692    0.4360    1.4991 H   0  0  0  0  0  0  0  0  0  0  0  0
   -2.0190    0.6508    0.0870 H   0  0  0  0  0  0  0  0  0  0  0  0
    0.1558    2.6337    0.8495 H   0  0  0  0  0  0  0  0  0  0  0  0
   -1.2260    4.2162   -0.4720 H   0  0  0  0  0  0  0  0  0  0  0  0
   -0.7880    2.8389   -1.4732 H   0  0  0  0  0  0  0  0  0  0  0  0
   -2.4086    2.9467   -0.7858 H   0  0  0  0  0  0  0  0  0  0  0  0
   -1.6331    3.9589    1.9764 H   0  0  0  0  0  0  0  0  0  0  0  0
   -1.3493    2.4127    2.7744 H   0  0  0  0  0  0  0  0  0  0  0  0
   -2.7625    2.6247    1.7354 H   0  0  0  0  0  0  0  0  0  0  0  0
    2.3888   -0.4593   -0.2655 N   0  0  0  0  0  0  0  0  0  0  0  0
    3.2020   -0.6441    0.3055 H   0  0  0  0  0  0  0  0  0  0  0  0
    2.4716   -0.8359   -1.6554 C   0  0  1  0  0  0  0  0  0  0  0  0
    1.9960   -1.8025   -1.8418 H   0  0  0  0  0  0  0  0  0  0  0  0
    1.9968   -0.0838   -2.2863 H   0  0  0  0  0  0  0  0  0  0  0  0
    3.5205   -0.9040   -1.9363 H   0  0  0  0  0  0  0  0  0  0  0  0
   -0.6995   -2.1579   -0.5835 C   0  0  0  0  0  0  0  0  0  0  0  0
   -0.9959   -3.0427   -1.3620 O   0  0  0  0  0  0  0  0  0  0  0  0
   -0.6740   -2.3536    0.9095 C   0  0  2  0  0  0  0  0  0  0  0  0
    0.1583   -1.8417    1.3797 H   0  0  0  0  0  0  0  0  0  0  0  0
   -0.6195   -3.4186    1.1188 H   0  0  0  0  0  0  0  0  0  0  0  0
   -1.6016   -1.9683    1.3284 H   0  0  0  0  0  0  0  0  0  0  0  0
  1 26  1  0
  1  2  1  0
  2 10  1  6
  2  3  1  0
  2  5  1  0
  3  4  2  0
  5  6  1  0
  5 11  1  1
  6 13  1  1
  6  8  1  0
  7 14  1  1
  7  6  1  0
  8 17  1  1
  8 18  1  0
  9  1  1  0
 12  5  1  0
 15  7  1  0
 16  7  1  0
 19  8  1  0
 20 21  1  0
 20  3  1  0
 22 20  1  0
 22 23  1  1
 24 22  1  0
 25 22  1  0
 26 28  1  0
 27 26  2  0
 28 30  1  6
 28 31  1  0
 28 29  1  0
M  END
$$$$
