-42.46151916
     RDKit          3D

 31 30  0  0  1  0  0  0  0  0999 V2000
   -0.5613   -0.7327    0.4060 N   0  0  0  0  0  0  0  0  0  0  0  0
    0.1213    0.2074   -0.4470 C   0  0  2  0  0  0  0  0  0  0  0  0
    1.5928   -0.1613   -0.7121 C   0  0  0  0  0  0  0  0  0  0  0  0
    2.0655   -0.0234   -1.8242 O   0  0  0  0  0  0  0  0  0  0  0  0
    0.0529    1.6379    0.1052 C   0  0  2  0  0  0  0  0  0  0  0  0
   -1.2622    2.3665   -0.2027 C   0  0  1  0  0  0  0  0  0  0  0  0
   -2.4595    1.7238    0.4932 C   0  0  1  0  0  0  0  0  0  0  0  0
   -1.1391    3.8308    0.2167 C   0  0  2  0  0  0  0  0  0  0  0  0
   -0.7524   -0.4459    1.3556 H   0  0  0  0  0  0  0  0  0  0  0  0
   -0.3482    0.2044   -1.4396 H   0  0  0  0  0  0  0  0  0  0  0  0
    0.8699    2.2054   -0.3466 H   0  0  0  0  0  0  0  0  0  0  0  0
    0.2143    1.6275    1.1858 H   0  0  0  0  0  0  0  0  0  0  0  0
   -1.4263    2.3308   -1.2850 H   0  0  0  0  0  0  0  0  0  0  0  0
   -2.3198    1.7240    1.5727 H   0  0  0  0  0  0  0  0  0  0  0  0
   -3.3631    2.2870    0.2715 H   0  0  0  0  0  0  0  0  0  0  0  0
   -2.6101    0.7008    0.1606 H   0  0  0  0  0  0  0  0  0  0  0  0
   -0.9671    3.9071    1.2885 H   0  0  0  0  0  0  0  0  0  0  0  0
   -2.0518    4.3713   -0.0212 H   0  0  0  0  0  0  0  0  0  0  0  0
   -0.3121    4.3125   -0.2996 H   0  0  0  0  0  0  0  0  0  0  0  0
    2.3582   -0.6098    0.3023 N   0  0  0  0  0  0  0  0  0  0  0  0
    3.2962   -0.8510    0.0124 H   0  0  0  0  0  0  0  0  0  0  0  0
    2.0285   -0.8637    1.6851 C   0  0  1  0  0  0  0  0  0  0  0  0
    1.4287   -1.7702    1.8000 H   0  0  0  0  0  0  0  0  0  0  0  0
    2.9546   -0.9904    2.2420 H   0  0  0  0  0  0  0  0  0  0  0  0
    1.4876   -0.0219    2.1159 H   0  0  0  0  0  0  0  0  0  0  0  0
   -0.8804   -2.0204    0.1264 C   0  0  0  0  0  0  0  0  0  0  0  0
   -1.3561   -2.7322    0.9885 O   0  0  0  0  0  0  0  0  0  0  0  0
   -0.6242   -2.4772   -1.2882 C   0  0  2  0  0  0  0  0  0  0  0  0
   -1.2689   -1.9302   -1.9738 H   0  0  0  0  0  0  0  0  0  0  0  0
   -0.8472   -3.5377   -1.3614 H   0  0  0  0  0  0  0  0  0  0  0  0
    0.4094   -2.2995   -1.5749 H   0  0  0  0  0  0  0  0  0  0  0  0
  1  9  1  0
  2 10  1  6
  2  5  1  0
  2  1  1  0
  3  2  1  0
  3 20  1  0
  4  3  2  0
  5 12  1  1
  6  5  1  0
  6  8  1  0
  6  7  1  0
  7 14  1  1
  8 17  1  1
 11  5  1  0
  6 13  1  6
 15  7  1  0
 16  7  1  0
 18  8  1  0
 19  8  1  0
 20 22  1  0
 21 20  1  0
 22 23  1  6
 22 25  1  0
 22 24  1  0
 26  1  1  0
 26 27  2  0
 28 26  1  0
 28 29  1  6
 30 28  1  0
 31 28  1  0
M  END
$$$$
