-42.46064093
     RDKit          3D

 31 30  0  0  1  0  0  0  0  0999 V2000
   -0.6642   -0.9267    0.5291 N   0  0  0  0  0  0  0  0  0  0  0  0
    0.2805    0.0208   -0.0068 C   0  0  2  0  0  0  0  0  0  0  0  0
    1.7031   -0.4007    0.3956 C   0  0  0  0  0  0  0  0  0  0  0  0
    1.9282   -0.9865    1.4326 O   0  0  0  0  0  0  0  0  0  0  0  0
    0.0316    1.4315    0.5556 C   0  0  2  0  0  0  0  0  0  0  0  0
   -1.1210    2.1858   -0.1194 C   0  0  1  0  0  0  0  0  0  0  0  0
   -2.4793    1.5809    0.2236 C   0  0  1  0  0  0  0  0  0  0  0  0
   -1.0840    3.6541    0.3036 C   0  0  2  0  0  0  0  0  0  0  0  0
   -0.7383   -0.9311    1.5384 H   0  0  0  0  0  0  0  0  0  0  0  0
    0.1847    0.0380   -1.0930 H   0  0  0  0  0  0  0  0  0  0  0  0
    0.9479    2.0152    0.4361 H   0  0  0  0  0  0  0  0  0  0  0  0
   -0.1607    1.3493    1.6268 H   0  0  0  0  0  0  0  0  0  0  0  0
   -0.9792    2.1371   -1.2061 H   0  0  0  0  0  0  0  0  0  0  0  0
   -2.6491    1.6209    1.2970 H   0  0  0  0  0  0  0  0  0  0  0  0
   -3.2726    2.1401   -0.2677 H   0  0  0  0  0  0  0  0  0  0  0  0
   -2.5435    0.5447   -0.0938 H   0  0  0  0  0  0  0  0  0  0  0  0
   -0.1409    4.1182    0.0225 H   0  0  0  0  0  0  0  0  0  0  0  0
   -1.1999    3.7389    1.3817 H   0  0  0  0  0  0  0  0  0  0  0  0
   -1.8912    4.2064   -0.1712 H   0  0  0  0  0  0  0  0  0  0  0  0
    2.7014   -0.0567   -0.4482 N   0  0  0  0  0  0  0  0  0  0  0  0
    3.6180   -0.3638   -0.1546 H   0  0  0  0  0  0  0  0  0  0  0  0
    2.5991    0.5846   -1.7370 C   0  0  1  0  0  0  0  0  0  0  0  0
    2.0120    1.5017   -1.6734 H   0  0  0  0  0  0  0  0  0  0  0  0
    3.5984    0.8421   -2.0796 H   0  0  0  0  0  0  0  0  0  0  0  0
    2.1418   -0.0753   -2.4807 H   0  0  0  0  0  0  0  0  0  0  0  0
   -1.1812   -2.0267   -0.0717 C   0  0  0  0  0  0  0  0  0  0  0  0
   -1.8605   -2.8133    0.5526 O   0  0  0  0  0  0  0  0  0  0  0  0
   -0.9109   -2.1811   -1.5554 C   0  0  2  0  0  0  0  0  0  0  0  0
    0.1575   -2.2856   -1.7325 H   0  0  0  0  0  0  0  0  0  0  0  0
   -1.2883   -1.3238   -2.1091 H   0  0  0  0  0  0  0  0  0  0  0  0
   -1.4173   -3.0772   -1.9023 H   0  0  0  0  0  0  0  0  0  0  0  0
  1  9  1  0
  2 10  1  6
  2  3  1  0
  2  1  1  0
  2  5  1  0
  3  4  2  0
  5 12  1  1
  6  7  1  0
  6  8  1  0
  6  5  1  0
  7 14  1  1
  8 18  1  1
 11  5  1  0
  6 13  1  6
 15  7  1  0
 16  7  1  0
 17  8  1  0
 19  8  1  0
 20 21  1  0
 20  3  1  0
 22 23  1  1
 22 20  1  0
 24 22  1  0
 25 22  1  0
 26  1  1  0
 26 27  2  0
 28 26  1  0
 28 29  1  1
 30 28  1  0
 31 28  1  0
M  END
$$$$
