 energy: -55.674056349349 gnorm: 0.000027495384 xtb: 6.5.1 (9af7eec)
     RDKit          3D

 25 26  0  0  0  0  0  0  0  0999 V2000
   -2.4629    1.9814    0.8272 C   0  0  0  0  0  0  0  0  0  0  0  0
   -3.4452    1.1318    0.3454 C   0  0  0  0  0  0  0  0  0  0  0  0
   -3.0855   -0.0734   -0.2288 C   0  0  0  0  0  0  0  0  0  0  0  0
   -1.7497   -0.4473   -0.3125 C   0  0  0  0  0  0  0  0  0  0  0  0
   -0.7489    0.3859    0.2070 C   0  0  0  0  0  0  0  0  0  0  0  0
   -1.1355    1.6110    0.7590 C   0  0  0  0  0  0  0  0  0  0  0  0
    0.6744    0.0726    0.2133 C   0  0  0  0  0  0  0  0  0  0  0  0
    1.3888   -1.1022    0.3280 C   0  0  0  0  0  0  0  0  0  0  0  0
    2.7430   -0.7395    0.3554 C   0  0  0  0  0  0  0  0  0  0  0  0
    2.7744    0.6336    0.2601 C   0  0  0  0  0  0  0  0  0  0  0  0
    1.5208    1.1178    0.1850 O   0  0  0  0  0  0  0  0  0  0  0  0
    3.8999    1.5665    0.2407 C   0  0  0  0  0  0  0  0  0  0  0  0
    3.8175    2.7664    0.1848 O   0  0  0  0  0  0  0  0  0  0  0  0
    5.0764    0.9182    0.3008 O   0  0  0  0  0  0  0  0  0  0  0  0
   -1.4299   -1.7449   -1.0029 C   0  0  2  0  0  0  0  0  0  0  0  0
   -0.3838   -1.6602   -1.8400 F   0  0  0  0  0  0  0  0  0  0  0  0
   -2.4528   -2.1967   -1.7441 F   0  0  0  0  0  0  0  0  0  0  0  0
   -1.1462   -2.7415   -0.1380 F   0  0  0  0  0  0  0  0  0  0  0  0
   -2.7323    2.9320    1.2612 H   0  0  0  0  0  0  0  0  0  0  0  0
   -4.4863    1.4075    0.4047 H   0  0  0  0  0  0  0  0  0  0  0  0
   -3.8451   -0.7274   -0.6281 H   0  0  0  0  0  0  0  0  0  0  0  0
   -0.3678    2.2664    1.1395 H   0  0  0  0  0  0  0  0  0  0  0  0
    1.0038   -2.0965    0.4076 H   0  0  0  0  0  0  0  0  0  0  0  0
    3.5908   -1.3875    0.4357 H   0  0  0  0  0  0  0  0  0  0  0  0
    5.8019    1.5624    0.2849 H   0  0  0  0  0  0  0  0  0  0  0  0
  1  2  2  0
  2  3  1  0
  3  4  2  0
  4  5  1  0
  5  6  2  0
  5  7  1  0
  7  8  2  0
  8  9  1  0
  9 10  2  0
 10 11  1  0
 10 12  1  0
 12 13  2  0
 12 14  1  0
  4 15  1  0
 15 16  1  6
 15 17  1  0
 15 18  1  0
  6  1  1  0
 11  7  1  0
  1 19  1  0
  2 20  1  0
  3 21  1  0
  6 22  1  0
  8 23  1  0
  9 24  1  0
 14 25  1  0
M  END
$$$$
