serne
     RDKit          3D

 14 13  0  0  1  0  0  0  0  0999 V2000
   -0.0385    0.0040    0.1138 N   0  0  0  0  0  0  0  0  0  0  0  0
    1.4136    0.0087    0.0065 C   0  0  2  0  0  0  0  0  0  0  0  0
    2.0471    0.0920    1.3972 C   0  0  0  0  0  0  0  0  0  0  0  0
    3.2163   -0.0775    1.5897 O   0  0  0  0  0  0  0  0  0  0  0  0
    1.1792    0.4048    2.3516 O   0  0  0  0  0  0  0  0  0  0  0  0
    1.8732    1.2248   -0.7777 C   0  0  1  0  0  0  0  0  0  0  0  0
    1.2744    1.1552   -2.0550 O   0  0  0  0  0  0  0  0  0  0  0  0
    1.8152   -0.8826   -0.4836 H   0  0  0  0  0  0  0  0  0  0  0  0
    1.5616    2.1352   -0.2499 H   0  0  0  0  0  0  0  0  0  0  0  0
    2.9641    1.2081   -0.8317 H   0  0  0  0  0  0  0  0  0  0  0  0
   -0.4002   -0.9386    0.1462 H   0  0  0  0  0  0  0  0  0  0  0  0
   -0.4425    0.4524   -0.6981 H   0  0  0  0  0  0  0  0  0  0  0  0
    1.5198    1.9314   -2.5580 H   0  0  0  0  0  0  0  0  0  0  0  0
    0.3161    0.4702    1.8865 H   0  0  0  0  0  0  0  0  0  0  0  0
  1 11  1  0
  2  8  1  6
  2  1  1  0
  2  3  1  0
  3  4  2  0
  3  5  1  0
  6  9  1  1
  6  2  1  0
  7  6  1  0
 10  6  1  0
 12  1  1  0
 13  7  1  0
 14  5  1  0
M  END
$$$$
