Coordinates from ORCA-job xaz
     RDKit          3D

 25 24  0  0  0  0  0  0  0  0999 V2000
   -1.1480   -1.1230    0.0710 N   0  0  0  0  0  0  0  0  0  0  0  0
   -0.9610   -2.1130    0.1520 H   0  0  0  0  0  0  0  0  0  0  0  0
    0.0010   -0.2780   -0.1080 C   0  0  1  0  0  0  0  0  0  0  0  0
   -0.0620    0.1800   -1.1000 H   0  0  0  0  0  0  0  0  0  0  0  0
    0.0740    0.8470    0.9530 C   0  0  2  0  0  0  0  0  0  0  0  0
    1.2460   -1.1600   -0.0960 C   0  0  0  0  0  0  0  0  0  0  0  0
    0.8660    0.6600    1.6720 H   0  0  0  0  0  0  0  0  0  0  0  0
   -0.8780    0.9040    1.4730 H   0  0  0  0  0  0  0  0  0  0  0  0
    0.3510    2.1380    0.2220 C   0  0  2  0  0  0  0  0  0  0  0  0
    1.1560   -2.3840   -0.0430 O   0  0  0  0  0  0  0  0  0  0  0  0
   -0.7050    2.6590   -0.4090 O   0  0  0  0  0  0  0  0  0  0  0  0
    1.4610    2.6220    0.1350 O   0  0  0  0  0  0  0  0  0  0  0  0
    2.4010   -0.4690   -0.1660 N   0  0  0  0  0  0  0  0  0  0  0  0
    3.6930   -1.1250   -0.1810 C   0  0  1  0  0  0  0  0  0  0  0  0
    2.3620    0.5420   -0.1570 H   0  0  0  0  0  0  0  0  0  0  0  0
    3.5180   -2.1960   -0.2020 H   0  0  0  0  0  0  0  0  0  0  0  0
    4.2580   -0.8340   -1.0630 H   0  0  0  0  0  0  0  0  0  0  0  0
    4.2660   -0.8740    0.7090 H   0  0  0  0  0  0  0  0  0  0  0  0
   -2.3820   -0.6120   -0.0970 C   0  0  0  0  0  0  0  0  0  0  0  0
   -3.5320   -1.5740    0.0040 C   0  0  2  0  0  0  0  0  0  0  0  0
   -2.5630    0.5940   -0.3180 O   0  0  0  0  0  0  0  0  0  0  0  0
   -4.0440   -1.6020   -0.9560 H   0  0  0  0  0  0  0  0  0  0  0  0
   -4.2360   -1.2000    0.7420 H   0  0  0  0  0  0  0  0  0  0  0  0
   -3.2180   -2.5780    0.2750 H   0  0  0  0  0  0  0  0  0  0  0  0
   -1.4540    2.0230   -0.3410 H   0  0  0  0  0  0  0  0  0  0  0  0
  1  3  1  0
  1 19  1  0
  1  2  1  0
  3  4  1  6
  3  6  1  0
  3  5  1  0
  5  9  1  0
  5  8  1  1
  5  7  1  0
  6 13  1  0
  6 10  1  0
  9 11  1  0
  9 12  1  6
 11 25  1  0
 13 14  1  0
 13 15  1  0
 14 17  1  6
 14 16  1  0
 14 18  1  0
 19 21  1  0
 19 20  1  0
 20 22  1  6
 20 24  1  0
 20 23  1  0
M  END
$$$$
