Coordinates from ORCA-job xbc
     RDKit          3D

 25 24  0  0  0  0  0  0  0  0999 V2000
    0.1860    0.9460   -0.8770 N   0  0  0  0  0  0  0  0  0  0  0  0
    0.6920    1.1910   -1.7100 H   0  0  0  0  0  0  0  0  0  0  0  0
   -0.0950   -0.4790   -0.7200 C   0  0  1  0  0  0  0  0  0  0  0  0
    0.1850   -0.9360   -1.6650 H   0  0  0  0  0  0  0  0  0  0  0  0
    0.7430   -1.1130    0.3840 C   0  0  2  0  0  0  0  0  0  0  0  0
   -1.5720   -0.8510   -0.5470 C   0  0  0  0  0  0  0  0  0  0  0  0
    0.4690   -2.1630    0.4940 H   0  0  0  0  0  0  0  0  0  0  0  0
    0.5660   -0.6290    1.3430 H   0  0  0  0  0  0  0  0  0  0  0  0
    2.2100   -1.0450    0.0640 C   0  0  0  0  0  0  0  0  0  0  0  0
   -2.0410   -1.7690   -1.2130 O   0  0  0  0  0  0  0  0  0  0  0  0
    2.9560   -1.5410    1.0740 O   0  0  0  0  0  0  0  0  0  0  0  0
    2.6940   -0.6140   -0.9600 O   0  0  0  0  0  0  0  0  0  0  0  0
   -2.2440   -0.1580    0.3930 N   0  0  0  0  0  0  0  0  0  0  0  0
   -3.6330   -0.4340    0.6870 C   0  0  1  0  0  0  0  0  0  0  0  0
   -1.7300    0.5520    0.9060 H   0  0  0  0  0  0  0  0  0  0  0  0
   -4.2870    0.3370    0.2810 H   0  0  0  0  0  0  0  0  0  0  0  0
   -3.8910   -1.3860    0.2330 H   0  0  0  0  0  0  0  0  0  0  0  0
   -3.7830   -0.4920    1.7630 H   0  0  0  0  0  0  0  0  0  0  0  0
    0.1710    1.8710    0.1110 C   0  0  0  0  0  0  0  0  0  0  0  0
    0.7770    3.2060   -0.2420 C   0  0  1  0  0  0  0  0  0  0  0  0
   -0.2970    1.6560    1.2320 O   0  0  0  0  0  0  0  0  0  0  0  0
    0.1340    3.9920    0.1420 H   0  0  0  0  0  0  0  0  0  0  0  0
    1.7400    3.2870    0.2580 H   0  0  0  0  0  0  0  0  0  0  0  0
    0.9220    3.3400   -1.3110 H   0  0  0  0  0  0  0  0  0  0  0  0
    3.8770   -1.4720    0.7790 H   0  0  0  0  0  0  0  0  0  0  0  0
  1  2  1  0
  1  3  1  0
  1 19  1  0
  3  4  1  6
  3  6  1  0
  3  5  1  0
  5  9  1  0
  5  7  1  1
  5  8  1  0
  6 10  1  0
  6 13  1  0
  9 12  1  0
  9 11  1  0
 11 25  1  0
 13 14  1  0
 13 15  1  0
 14 17  1  6
 14 16  1  0
 14 18  1  0
 19 20  1  0
 19 21  1  0
 20 24  1  6
 20 22  1  0
 20 23  1  0
M  END
$$$$
