-14.70921168
     RDKit          3D

 17 16  0  0  0  0  0  0  0  0999 V2000
    1.8146   -0.5140    0.4737 Si  0  0  1  0  0  4  0  0  0  0  0  0
    0.0158    0.2032   -0.8070 Si  0  0  1  0  0  4  0  0  0  0  0  0
   -2.0622   -0.7743   -0.4392 Si  0  0  2  0  0  4  0  0  0  0  0  0
   -3.6458    0.5523    0.6040 Si  0  0  1  0  0  4  0  0  0  0  0  0
    1.4321   -0.3816    1.8918 H   0  0  0  0  0  0  0  0  0  0  0  0
    1.9500   -1.9719    0.3073 H   0  0  0  0  0  0  0  0  0  0  0  0
    3.8701    0.4959    0.1419 Si  0  0  1  0  0  4  0  0  0  0  0  0
   -0.1264    1.6600   -0.6201 H   0  0  0  0  0  0  0  0  0  0  0  0
    0.3837    0.0950   -2.2294 H   0  0  0  0  0  0  0  0  0  0  0  0
   -1.8515   -1.9957    0.3594 H   0  0  0  0  0  0  0  0  0  0  0  0
   -2.6139   -1.3001   -1.7002 H   0  0  0  0  0  0  0  0  0  0  0  0
   -3.1554    1.0290    1.9009 H   0  0  0  0  0  0  0  0  0  0  0  0
   -3.9596    1.7469   -0.1846 H   0  0  0  0  0  0  0  0  0  0  0  0
   -4.9251   -0.1099    0.8703 H   0  0  0  0  0  0  0  0  0  0  0  0
    4.9440    0.0005    1.0082 H   0  0  0  0  0  0  0  0  0  0  0  0
    4.3389    0.3158   -1.2351 H   0  0  0  0  0  0  0  0  0  0  0  0
    3.7935    1.9417    0.3708 H   0  0  0  0  0  0  0  0  0  0  0  0
  1  5  1  1
  2  8  1  1
  2  3  1  0
  2  1  1  0
  3 10  1  1
  3  4  1  0
  4 14  1  1
  4 12  1  0
  6  1  1  0
  7 17  1  1
  7  1  1  0
  7 15  1  0
  9  2  1  0
 11  3  1  0
 13  4  1  0
 16  7  1  0
M  END
$$$$
