-14.70897161
     RDKit          3D

 17 16  0  0  0  0  0  0  0  0999 V2000
    1.6808   -0.2481   -0.9802 Si  0  0  1  0  0  4  0  0  0  0  0  0
    0.0021   -1.5484   -0.0352 Si  0  0  1  0  0  4  0  0  0  0  0  0
   -1.6926   -0.3113    0.9654 Si  0  0  2  0  0  4  0  0  0  0  0  0
   -2.9092    1.0326   -0.4687 Si  0  0  1  0  0  4  0  0  0  0  0  0
    2.5791   -1.0594   -1.8173 H   0  0  0  0  0  0  0  0  0  0  0  0
    1.0470    0.6541   -1.9592 H   0  0  0  0  0  0  0  0  0  0  0  0
    2.9186    1.0042    0.5169 Si  0  0  1  0  0  4  0  0  0  0  0  0
   -0.5945   -2.4505   -1.0346 H   0  0  0  0  0  0  0  0  0  0  0  0
    0.6098   -2.4845    0.9256 H   0  0  0  0  0  0  0  0  0  0  0  0
   -1.0748    0.5280    2.0084 H   0  0  0  0  0  0  0  0  0  0  0  0
   -2.6027   -1.1737    1.7362 H   0  0  0  0  0  0  0  0  0  0  0  0
   -3.5820    0.2452   -1.5053 H   0  0  0  0  0  0  0  0  0  0  0  0
   -3.9493    1.8389    0.1731 H   0  0  0  0  0  0  0  0  0  0  0  0
   -2.0311    1.9758   -1.1679 H   0  0  0  0  0  0  0  0  0  0  0  0
    3.9832    1.8108   -0.0834 H   0  0  0  0  0  0  0  0  0  0  0  0
    2.0594    1.9387    1.2503 H   0  0  0  0  0  0  0  0  0  0  0  0
    3.5640    0.1570    1.5233 H   0  0  0  0  0  0  0  0  0  0  0  0
  1  2  1  0
  1  7  1  0
  2  9  1  1
  2  3  1  0
  3 11  1  1
  3 10  1  0
  4 13  1  1
  4  3  1  0
  1  5  1  6
  6  1  1  0
  7 16  1  1
  7 17  1  0
  8  2  1  0
 12  4  1  0
 14  4  1  0
 15  7  1  0
M  END
$$$$
