-14.70920557
     RDKit          3D

 17 16  0  0  0  0  0  0  0  0999 V2000
    1.7245   -0.4420   -0.9012 Si  0  0  1  0  0  4  0  0  0  0  0  0
   -0.0007   -1.7423   -0.0388 Si  0  0  1  0  0  4  0  0  0  0  0  0
   -1.7201   -0.4757    0.8838 Si  0  0  2  0  0  4  0  0  0  0  0  0
   -2.4235    1.2949   -0.4251 Si  0  0  1  0  0  4  0  0  0  0  0  0
    2.8773   -1.2681   -1.2945 H   0  0  0  0  0  0  0  0  0  0  0  0
    1.2721    0.1214   -2.1853 H   0  0  0  0  0  0  0  0  0  0  0  0
    2.4199    1.2765    0.4794 Si  0  0  1  0  0  4  0  0  0  0  0  0
   -0.5528   -2.6366   -1.0695 H   0  0  0  0  0  0  0  0  0  0  0  0
    0.5468   -2.6865    0.9491 H   0  0  0  0  0  0  0  0  0  0  0  0
   -1.2592    0.0372    2.1860 H   0  0  0  0  0  0  0  0  0  0  0  0
   -2.8706   -1.3163    1.2525 H   0  0  0  0  0  0  0  0  0  0  0  0
   -3.4664    2.1313    0.1717 H   0  0  0  0  0  0  0  0  0  0  0  0
   -1.3016    2.1876   -0.7344 H   0  0  0  0  0  0  0  0  0  0  0  0
   -2.9531    0.8376   -1.7127 H   0  0  0  0  0  0  0  0  0  0  0  0
    1.2980    2.1616    0.8100 H   0  0  0  0  0  0  0  0  0  0  0  0
    2.9342    0.7697    1.7546 H   0  0  0  0  0  0  0  0  0  0  0  0
    3.4719    2.1304   -0.0752 H   0  0  0  0  0  0  0  0  0  0  0  0
  1  2  1  0
  1  7  1  0
  2  3  1  0
  2  9  1  1
  3 11  1  1
  3 10  1  0
  4 12  1  1
  4  3  1  0
  1  5  1  6
  6  1  1  0
  7 15  1  1
  7 16  1  0
  8  2  1  0
 13  4  1  0
 14  4  1  0
 17  7  1  0
M  END
$$$$
