-14.70920511
     RDKit          3D

 17 16  0  0  0  0  0  0  0  0999 V2000
    1.7270   -0.4787    0.8809 Si  0  0  1  0  0  4  0  0  0  0  0  0
   -0.0000   -1.7427   -0.0308 Si  0  0  1  0  0  4  0  0  0  0  0  0
   -1.7234   -0.4433   -0.8987 Si  0  0  2  0  0  4  0  0  0  0  0  0
   -2.4238    1.2796    0.4739 Si  0  0  1  0  0  4  0  0  0  0  0  0
    1.2782    0.0297    2.1891 H   0  0  0  0  0  0  0  0  0  0  0  0
    2.8805   -1.3211    1.2361 H   0  0  0  0  0  0  0  0  0  0  0  0
    2.4204    1.2965   -0.4269 Si  0  0  1  0  0  4  0  0  0  0  0  0
    0.5463   -2.6449   -1.0578 H   0  0  0  0  0  0  0  0  0  0  0  0
   -0.5488   -2.6792    0.9636 H   0  0  0  0  0  0  0  0  0  0  0  0
   -2.8749   -1.2713   -1.2921 H   0  0  0  0  0  0  0  0  0  0  0  0
   -1.2682    0.1159   -2.1838 H   0  0  0  0  0  0  0  0  0  0  0  0
   -2.9988    0.7766    1.7243 H   0  0  0  0  0  0  0  0  0  0  0  0
   -1.2913    2.1309    0.8540 H   0  0  0  0  0  0  0  0  0  0  0  0
   -3.4309    2.1665   -0.1112 H   0  0  0  0  0  0  0  0  0  0  0  0
    1.2979    2.1942   -0.7195 H   0  0  0  0  0  0  0  0  0  0  0  0
    3.4722    2.1269    0.1625 H   0  0  0  0  0  0  0  0  0  0  0  0
    2.9342    0.8443   -1.7227 H   0  0  0  0  0  0  0  0  0  0  0  0
  1  6  1  1
  1  5  1  0
  2  1  1  0
  2  9  1  1
  3  2  1  0
  3  4  1  0
  4 13  1  1
  4 12  1  0
  7 16  1  1
  7  1  1  0
  8  2  1  0
  3 10  1  6
 11  3  1  0
 14  4  1  0
 15  7  1  0
 17  7  1  0
M  END
$$$$
