-61.77635981
     RDKit          3D

 39 38  0  0  1  0  0  0  0  0999 V2000
   -3.9580    1.8322    0.4149 H   0  0  0  0  0  0  0  0  0  0  0  0
   -3.1023    1.6782    1.0701 C   0  0  1  0  0  0  0  0  0  0  0  0
   -3.1839    0.6888    1.5128 H   0  0  0  0  0  0  0  0  0  0  0  0
   -3.1152    2.4324    1.8518 H   0  0  0  0  0  0  0  0  0  0  0  0
   -1.8279    1.8153    0.2821 C   0  0  0  0  0  0  0  0  0  0  0  0
   -1.0344    2.7304    0.4818 O   0  0  0  0  0  0  0  0  0  0  0  0
   -1.5821    0.8985   -0.6687 N   0  0  0  0  0  0  0  0  0  0  0  0
   -0.7418    1.0548   -1.2283 H   0  0  0  0  0  0  0  0  0  0  0  0
   -2.3564   -0.2936   -0.9438 C   0  0  1  0  0  0  0  0  0  0  0  0
   -3.4237   -0.0436   -0.8845 H   0  0  0  0  0  0  0  0  0  0  0  0
   -2.0690   -0.8111   -2.3502 C   0  0  1  0  0  0  0  0  0  0  0  0
   -2.5865   -1.7542   -2.5066 H   0  0  0  0  0  0  0  0  0  0  0  0
   -2.4290   -0.0913   -3.0818 H   0  0  0  0  0  0  0  0  0  0  0  0
   -1.0069   -0.9600   -2.5185 H   0  0  0  0  0  0  0  0  0  0  0  0
   -2.1647   -1.3707    0.1487 C   0  0  0  0  0  0  0  0  0  0  0  0
   -3.1207   -1.7184    0.8167 O   0  0  0  0  0  0  0  0  0  0  0  0
   -0.9550   -1.9193    0.3542 N   0  0  0  0  0  0  0  0  0  0  0  0
   -0.9083   -2.5577    1.1441 H   0  0  0  0  0  0  0  0  0  0  0  0
    0.3303   -1.6551   -0.2365 C   0  0  1  0  0  0  0  0  0  0  0  0
    0.6140   -2.4906   -0.8949 H   0  0  0  0  0  0  0  0  0  0  0  0
    0.3098   -0.7417   -0.8163 H   0  0  0  0  0  0  0  0  0  0  0  0
    1.3814   -1.5999    0.8732 C   0  0  0  0  0  0  0  0  0  0  0  0
    1.2188   -2.2009    1.9157 O   0  0  0  0  0  0  0  0  0  0  0  0
    2.5156   -0.8971    0.6564 N   0  0  0  0  0  0  0  0  0  0  0  0
    3.1782   -0.9857    1.4153 H   0  0  0  0  0  0  0  0  0  0  0  0
    2.8927   -0.0094   -0.4356 C   0  0  1  0  0  0  0  0  0  0  0  0
    3.7978    0.5136   -0.1119 H   0  0  0  0  0  0  0  0  0  0  0  0
    3.2048   -0.7644   -1.7260 C   0  0  1  0  0  0  0  0  0  0  0  0
    3.9069   -1.5694   -1.5253 H   0  0  0  0  0  0  0  0  0  0  0  0
    2.3021   -1.1770   -2.1647 H   0  0  0  0  0  0  0  0  0  0  0  0
    3.6438   -0.0793   -2.4458 H   0  0  0  0  0  0  0  0  0  0  0  0
    1.7830    1.0372   -0.6499 C   0  0  0  0  0  0  0  0  0  0  0  0
    1.0990    1.0303   -1.6698 O   0  0  0  0  0  0  0  0  0  0  0  0
    1.5622    1.9071    0.3305 N   0  0  0  0  0  0  0  0  0  0  0  0
    0.6806    2.4417    0.2510 H   0  0  0  0  0  0  0  0  0  0  0  0
    2.2222    1.9825    1.6091 C   0  0  1  0  0  0  0  0  0  0  0  0
    1.9074    1.1732    2.2739 H   0  0  0  0  0  0  0  0  0  0  0  0
    3.3066    1.9457    1.4961 H   0  0  0  0  0  0  0  0  0  0  0  0
    1.9532    2.9297    2.0699 H   0  0  0  0  0  0  0  0  0  0  0  0
  2  1  1  6
  2  3  1  0
  2  4  1  0
  5  6  2  0
  5  2  1  0
  7  5  1  0
  8  7  1  0
  9 10  1  6
  9  7  1  0
  9 15  1  0
 11  9  1  0
 11 12  1  6
 13 11  1  0
 14 11  1  0
 15 17  1  0
 15 16  2  0
 17 18  1  0
 19 17  1  0
 19 22  1  0
 19 20  1  6
 21 19  1  0
 22 23  2  0
 24 22  1  0
 24 25  1  0
 26 27  1  1
 26 24  1  0
 28 29  1  1
 28 26  1  0
 30 28  1  0
 31 28  1  0
 32 26  1  0
 32 34  1  0
 33 32  2  0
 34 36  1  0
 35 34  1  0
 36 39  1  1
 36 37  1  0
 38 36  1  0
M  END
$$$$
