-61.76790614
     RDKit          3D

 39 38  0  0  1  0  0  0  0  0999 V2000
   -1.8902    0.7165    2.5374 H   0  0  0  0  0  0  0  0  0  0  0  0
   -2.5970    1.3273    1.9771 C   0  0  1  0  0  0  0  0  0  0  0  0
   -2.7457    2.2607    2.5128 H   0  0  0  0  0  0  0  0  0  0  0  0
   -3.5394    0.7935    1.8995 H   0  0  0  0  0  0  0  0  0  0  0  0
   -2.0386    1.6390    0.6148 C   0  0  0  0  0  0  0  0  0  0  0  0
   -1.5701    2.7229    0.3146 O   0  0  0  0  0  0  0  0  0  0  0  0
   -2.0630    0.6444   -0.3043 N   0  0  0  0  0  0  0  0  0  0  0  0
   -1.8219    0.9276   -1.2461 H   0  0  0  0  0  0  0  0  0  0  0  0
   -2.3407   -0.7717   -0.1398 C   0  0  1  0  0  0  0  0  0  0  0  0
   -2.1255   -1.0592    0.8909 H   0  0  0  0  0  0  0  0  0  0  0  0
   -3.7844   -1.1174   -0.5039 C   0  0  1  0  0  0  0  0  0  0  0  0
   -4.4796   -0.4961    0.0541 H   0  0  0  0  0  0  0  0  0  0  0  0
   -3.9353   -0.9548   -1.5681 H   0  0  0  0  0  0  0  0  0  0  0  0
   -3.9833   -2.1624   -0.2813 H   0  0  0  0  0  0  0  0  0  0  0  0
   -1.3796   -1.4447   -1.1359 C   0  0  0  0  0  0  0  0  0  0  0  0
   -1.6648   -1.5388   -2.3115 O   0  0  0  0  0  0  0  0  0  0  0  0
   -0.1615   -1.8182   -0.6888 N   0  0  0  0  0  0  0  0  0  0  0  0
    0.4851   -2.0949   -1.4205 H   0  0  0  0  0  0  0  0  0  0  0  0
    0.3592   -1.8093    0.6556 C   0  0  1  0  0  0  0  0  0  0  0  0
   -0.2146   -2.4880    1.2988 H   0  0  0  0  0  0  0  0  0  0  0  0
    1.3865   -2.1788    0.6155 H   0  0  0  0  0  0  0  0  0  0  0  0
    0.3716   -0.4554    1.3719 C   0  0  0  0  0  0  0  0  0  0  0  0
   -0.0366   -0.3653    2.5157 O   0  0  0  0  0  0  0  0  0  0  0  0
    0.8769    0.6140    0.7317 N   0  0  0  0  0  0  0  0  0  0  0  0
    0.7380    1.4965    1.2104 H   0  0  0  0  0  0  0  0  0  0  0  0
    1.3899    0.7026   -0.6215 C   0  0  1  0  0  0  0  0  0  0  0  0
    0.6291    0.3607   -1.3344 H   0  0  0  0  0  0  0  0  0  0  0  0
    1.7097    2.1562   -0.9552 C   0  0  1  0  0  0  0  0  0  0  0  0
    2.0423    2.2304   -1.9872 H   0  0  0  0  0  0  0  0  0  0  0  0
    0.8049    2.7505   -0.8366 H   0  0  0  0  0  0  0  0  0  0  0  0
    2.4822    2.5620   -0.3090 H   0  0  0  0  0  0  0  0  0  0  0  0
    2.5845   -0.2404   -0.8359 C   0  0  0  0  0  0  0  0  0  0  0  0
    2.5356   -1.1011   -1.6973 O   0  0  0  0  0  0  0  0  0  0  0  0
    3.6709   -0.1272   -0.0526 N   0  0  0  0  0  0  0  0  0  0  0  0
    4.4182   -0.7586   -0.3130 H   0  0  0  0  0  0  0  0  0  0  0  0
    3.9634    0.7781    1.0316 C   0  0  1  0  0  0  0  0  0  0  0  0
    4.5750    0.2576    1.7683 H   0  0  0  0  0  0  0  0  0  0  0  0
    4.5193    1.6523    0.6801 H   0  0  0  0  0  0  0  0  0  0  0  0
    3.0471    1.1015    1.5174 H   0  0  0  0  0  0  0  0  0  0  0  0
  2  3  1  1
  2  1  1  0
  4  2  1  0
  5  2  1  0
  6  5  2  0
  7  9  1  0
  7  5  1  0
  8  7  1  0
  9 10  1  1
 11 14  1  6
 11  9  1  0
 11 12  1  0
 13 11  1  0
 15 17  1  0
 15  9  1  0
 16 15  2  0
 17 19  1  0
 18 17  1  0
 19 20  1  1
 19 22  1  0
 21 19  1  0
 22 23  2  0
 24 25  1  0
 24 22  1  0
 26 27  1  6
 26 24  1  0
 28 30  1  6
 28 26  1  0
 28 31  1  0
 29 28  1  0
 32 26  1  0
 32 34  1  0
 33 32  2  0
 34 36  1  0
 35 34  1  0
 36 39  1  1
 36 37  1  0
 38 36  1  0
M  END
$$$$
