-61.76774443
     RDKit          3D

 39 38  0  0  1  0  0  0  0  0999 V2000
   -3.3732    3.5030    0.5413 H   0  0  0  0  0  0  0  0  0  0  0  0
   -3.2666    2.4329    0.3872 C   0  0  1  0  0  0  0  0  0  0  0  0
   -4.1451    2.0533   -0.1289 H   0  0  0  0  0  0  0  0  0  0  0  0
   -3.1766    1.9422    1.3546 H   0  0  0  0  0  0  0  0  0  0  0  0
   -2.0173    2.1897   -0.4183 C   0  0  0  0  0  0  0  0  0  0  0  0
   -1.2321    3.0873   -0.6876 O   0  0  0  0  0  0  0  0  0  0  0  0
   -1.7819    0.9325   -0.8543 N   0  0  0  0  0  0  0  0  0  0  0  0
   -0.9099    0.8198   -1.3699 H   0  0  0  0  0  0  0  0  0  0  0  0
   -2.3602   -0.2861   -0.3251 C   0  0  1  0  0  0  0  0  0  0  0  0
   -3.2928   -0.0231    0.1827 H   0  0  0  0  0  0  0  0  0  0  0  0
   -2.6904   -1.2782   -1.4373 C   0  0  1  0  0  0  0  0  0  0  0  0
   -2.8448   -2.2720   -1.0264 H   0  0  0  0  0  0  0  0  0  0  0  0
   -3.6082   -0.9651   -1.9301 H   0  0  0  0  0  0  0  0  0  0  0  0
   -1.9106   -1.3184   -2.1905 H   0  0  0  0  0  0  0  0  0  0  0  0
   -1.4448   -0.7627    0.8196 C   0  0  0  0  0  0  0  0  0  0  0  0
   -1.6531   -0.3438    1.9471 O   0  0  0  0  0  0  0  0  0  0  0  0
   -0.3965   -1.5756    0.5970 N   0  0  0  0  0  0  0  0  0  0  0  0
    0.0664   -1.8679    1.4493 H   0  0  0  0  0  0  0  0  0  0  0  0
    0.1337   -2.1387   -0.6186 C   0  0  1  0  0  0  0  0  0  0  0  0
   -0.3717   -3.0759   -0.8808 H   0  0  0  0  0  0  0  0  0  0  0  0
    0.0303   -1.4305   -1.4430 H   0  0  0  0  0  0  0  0  0  0  0  0
    1.6218   -2.4612   -0.5379 C   0  0  0  0  0  0  0  0  0  0  0  0
    2.0481   -3.4979   -1.0046 O   0  0  0  0  0  0  0  0  0  0  0  0
    2.4686   -1.5854    0.0434 N   0  0  0  0  0  0  0  0  0  0  0  0
    3.4300   -1.8919   -0.0405 H   0  0  0  0  0  0  0  0  0  0  0  0
    2.3127   -0.2682    0.6307 C   0  0  1  0  0  0  0  0  0  0  0  0
    1.8861   -0.3590    1.6395 H   0  0  0  0  0  0  0  0  0  0  0  0
    3.7058    0.3625    0.7125 C   0  0  1  0  0  0  0  0  0  0  0  0
    3.6581    1.3678    1.1203 H   0  0  0  0  0  0  0  0  0  0  0  0
    4.3565   -0.2386    1.3448 H   0  0  0  0  0  0  0  0  0  0  0  0
    4.1346    0.4223   -0.2856 H   0  0  0  0  0  0  0  0  0  0  0  0
    1.4191    0.6647   -0.1977 C   0  0  0  0  0  0  0  0  0  0  0  0
    1.1572    0.4418   -1.3707 O   0  0  0  0  0  0  0  0  0  0  0  0
    0.9852    1.7708    0.4162 N   0  0  0  0  0  0  0  0  0  0  0  0
    0.4020    2.3800   -0.1648 H   0  0  0  0  0  0  0  0  0  0  0  0
    0.9230    2.0405    1.8344 C   0  0  1  0  0  0  0  0  0  0  0  0
    0.5638    3.0582    1.9634 H   0  0  0  0  0  0  0  0  0  0  0  0
    0.2225    1.3632    2.3332 H   0  0  0  0  0  0  0  0  0  0  0  0
    1.8999    1.9557    2.3093 H   0  0  0  0  0  0  0  0  0  0  0  0
  2  1  1  1
  2  4  1  0
  3  2  1  0
  5  2  1  0
  6  5  2  0
  7  5  1  0
  7  9  1  0
  8  7  1  0
  9 10  1  1
  9 15  1  0
 11 12  1  1
 11  9  1  0
 13 11  1  0
 14 11  1  0
 15 16  2  0
 17 15  1  0
 17 18  1  0
 19 22  1  0
 19 17  1  0
 19 20  1  6
 21 19  1  0
 22 24  1  0
 23 22  2  0
 24 26  1  0
 25 24  1  0
 26 28  1  0
 26 27  1  1
 28 29  1  1
 28 30  1  0
 31 28  1  0
 32 34  1  0
 32 26  1  0
 33 32  2  0
 34 36  1  0
 35 34  1  0
 36 37  1  6
 36 39  1  0
 36 38  1  0
M  END
$$$$
