-61.76681469
     RDKit          3D

 39 38  0  0  1  0  0  0  0  0999 V2000
   -1.8584    3.0210    0.7209 H   0  0  0  0  0  0  0  0  0  0  0  0
   -2.2681    2.0295    0.5450 C   0  0  1  0  0  0  0  0  0  0  0  0
   -2.1518    1.7606   -0.4998 H   0  0  0  0  0  0  0  0  0  0  0  0
   -3.3297    2.0489    0.7834 H   0  0  0  0  0  0  0  0  0  0  0  0
   -1.5865    1.0560    1.4712 C   0  0  0  0  0  0  0  0  0  0  0  0
   -0.9247    1.4209    2.4258 O   0  0  0  0  0  0  0  0  0  0  0  0
   -1.7563   -0.2743    1.2528 N   0  0  0  0  0  0  0  0  0  0  0  0
   -1.3415   -0.8442    1.9791 H   0  0  0  0  0  0  0  0  0  0  0  0
   -2.2098   -0.9971    0.0731 C   0  0  1  0  0  0  0  0  0  0  0  0
   -2.0414   -2.0552    0.2926 H   0  0  0  0  0  0  0  0  0  0  0  0
   -3.6939   -0.7887   -0.2306 C   0  0  1  0  0  0  0  0  0  0  0  0
   -4.0435   -1.5799   -0.8889 H   0  0  0  0  0  0  0  0  0  0  0  0
   -4.2660   -0.8190    0.6926 H   0  0  0  0  0  0  0  0  0  0  0  0
   -3.8581    0.1612   -0.7288 H   0  0  0  0  0  0  0  0  0  0  0  0
   -1.3510   -0.6179   -1.1440 C   0  0  0  0  0  0  0  0  0  0  0  0
   -1.7035    0.2048   -1.9728 O   0  0  0  0  0  0  0  0  0  0  0  0
   -0.1493   -1.2151   -1.2657 N   0  0  0  0  0  0  0  0  0  0  0  0
    0.3668   -0.9335   -2.0886 H   0  0  0  0  0  0  0  0  0  0  0  0
    0.5154   -2.1288   -0.3701 C   0  0  1  0  0  0  0  0  0  0  0  0
   -0.0576   -3.0559   -0.2545 H   0  0  0  0  0  0  0  0  0  0  0  0
    1.4878   -2.3814   -0.7986 H   0  0  0  0  0  0  0  0  0  0  0  0
    0.7806   -1.5989    1.0433 C   0  0  0  0  0  0  0  0  0  0  0  0
    0.5591   -2.3133    2.0037 O   0  0  0  0  0  0  0  0  0  0  0  0
    1.2787   -0.3623    1.1987 N   0  0  0  0  0  0  0  0  0  0  0  0
    1.4087   -0.1052    2.1698 H   0  0  0  0  0  0  0  0  0  0  0  0
    1.4683    0.7217    0.2591 C   0  0  1  0  0  0  0  0  0  0  0  0
    0.4956    1.0733   -0.1073 H   0  0  0  0  0  0  0  0  0  0  0  0
    2.1618    1.8627    1.0047 C   0  0  1  0  0  0  0  0  0  0  0  0
    3.1111    1.5155    1.4062 H   0  0  0  0  0  0  0  0  0  0  0  0
    2.3533    2.7033    0.3434 H   0  0  0  0  0  0  0  0  0  0  0  0
    1.5217    2.1952    1.8196 H   0  0  0  0  0  0  0  0  0  0  0  0
    2.3350    0.2970   -0.9283 C   0  0  0  0  0  0  0  0  0  0  0  0
    3.1435   -0.6072   -0.8640 O   0  0  0  0  0  0  0  0  0  0  0  0
    2.1626    0.9978   -2.0694 N   0  0  0  0  0  0  0  0  0  0  0  0
    2.7776    0.7198   -2.8214 H   0  0  0  0  0  0  0  0  0  0  0  0
    1.1827    2.0208   -2.3658 C   0  0  1  0  0  0  0  0  0  0  0  0
    1.4034    2.4365   -3.3456 H   0  0  0  0  0  0  0  0  0  0  0  0
    0.1682    1.6109   -2.3880 H   0  0  0  0  0  0  0  0  0  0  0  0
    1.2190    2.8292   -1.6355 H   0  0  0  0  0  0  0  0  0  0  0  0
  2  1  1  6
  2  4  1  0
  2  5  1  0
  3  2  1  0
  5  6  2  0
  7  5  1  0
  7  8  1  0
  9 10  1  1
  9  7  1  0
 11  9  1  0
 11 13  1  1
 12 11  1  0
 14 11  1  0
 15  9  1  0
 16 15  2  0
 17 15  1  0
 17 19  1  0
 18 17  1  0
 19 20  1  1
 19 22  1  0
 21 19  1  0
 22 24  1  0
 22 23  2  0
 24 25  1  0
 26 27  1  6
 26 28  1  0
 26 24  1  0
 28 29  1  1
 28 31  1  0
 30 28  1  0
 32 33  2  0
 32 26  1  0
 34 32  1  0
 35 34  1  0
 36 34  1  0
 36 39  1  1
 37 36  1  0
 38 36  1  0
M  END
$$$$
