-61.77330432
     RDKit          3D

 39 38  0  0  1  0  0  0  0  0999 V2000
   -2.1544    1.4458    2.7177 H   0  0  0  0  0  0  0  0  0  0  0  0
   -2.2544    0.8006    1.8493 C   0  0  1  0  0  0  0  0  0  0  0  0
   -3.2731    0.8372    1.4731 H   0  0  0  0  0  0  0  0  0  0  0  0
   -2.0308   -0.2224    2.1484 H   0  0  0  0  0  0  0  0  0  0  0  0
   -1.2620    1.2281    0.8048 C   0  0  0  0  0  0  0  0  0  0  0  0
   -0.3392    1.9959    1.0363 O   0  0  0  0  0  0  0  0  0  0  0  0
   -1.4174    0.7205   -0.4357 N   0  0  0  0  0  0  0  0  0  0  0  0
   -0.7111    0.9912   -1.1136 H   0  0  0  0  0  0  0  0  0  0  0  0
   -2.3950   -0.2428   -0.8834 C   0  0  1  0  0  0  0  0  0  0  0  0
   -3.4030    0.1186   -0.6348 H   0  0  0  0  0  0  0  0  0  0  0  0
   -2.3048   -0.4063   -2.4001 C   0  0  1  0  0  0  0  0  0  0  0  0
   -2.5127    0.5439   -2.8870 H   0  0  0  0  0  0  0  0  0  0  0  0
   -1.3148   -0.7394   -2.7011 H   0  0  0  0  0  0  0  0  0  0  0  0
   -3.0366   -1.1377   -2.7330 H   0  0  0  0  0  0  0  0  0  0  0  0
   -2.3015   -1.6238   -0.2118 C   0  0  0  0  0  0  0  0  0  0  0  0
   -3.3150   -2.1844    0.1543 O   0  0  0  0  0  0  0  0  0  0  0  0
   -1.1054   -2.2466   -0.1283 N   0  0  0  0  0  0  0  0  0  0  0  0
   -1.1556   -3.0971    0.4200 H   0  0  0  0  0  0  0  0  0  0  0  0
    0.2264   -1.7257   -0.3096 C   0  0  1  0  0  0  0  0  0  0  0  0
    0.8760   -2.5599   -0.5925 H   0  0  0  0  0  0  0  0  0  0  0  0
    0.2495   -0.9803   -1.1015 H   0  0  0  0  0  0  0  0  0  0  0  0
    0.7529   -1.1324    1.0002 C   0  0  0  0  0  0  0  0  0  0  0  0
    0.1752   -1.3264    2.0496 O   0  0  0  0  0  0  0  0  0  0  0  0
    1.9125   -0.4353    0.9784 N   0  0  0  0  0  0  0  0  0  0  0  0
    2.1265   -0.0405    1.8849 H   0  0  0  0  0  0  0  0  0  0  0  0
    2.7141    0.0703   -0.1288 C   0  0  1  0  0  0  0  0  0  0  0  0
    3.5936    0.5279    0.3285 H   0  0  0  0  0  0  0  0  0  0  0  0
    3.1939   -1.0196   -1.0878 C   0  0  1  0  0  0  0  0  0  0  0  0
    2.4390   -1.2444   -1.8344 H   0  0  0  0  0  0  0  0  0  0  0  0
    4.0831   -0.6709   -1.6070 H   0  0  0  0  0  0  0  0  0  0  0  0
    3.4440   -1.9211   -0.5352 H   0  0  0  0  0  0  0  0  0  0  0  0
    1.9050    1.1462   -0.8724 C   0  0  0  0  0  0  0  0  0  0  0  0
    1.1769    0.8503   -1.8114 O   0  0  0  0  0  0  0  0  0  0  0  0
    2.0229    2.4144   -0.4652 N   0  0  0  0  0  0  0  0  0  0  0  0
    1.3482    3.0354   -0.8952 H   0  0  0  0  0  0  0  0  0  0  0  0
    2.5801    2.9198    0.7672 C   0  0  1  0  0  0  0  0  0  0  0  0
    1.8762    2.7646    1.5878 H   0  0  0  0  0  0  0  0  0  0  0  0
    3.5296    2.4408    0.9979 H   0  0  0  0  0  0  0  0  0  0  0  0
    2.7542    3.9875    0.6505 H   0  0  0  0  0  0  0  0  0  0  0  0
  2  4  1  1
  2  1  1  0
  3  2  1  0
  5  6  2  0
  5  2  1  0
  7  5  1  0
  8  7  1  0
  9 10  1  6
  9  7  1  0
  9 15  1  0
 11  9  1  0
 11 12  1  6
 13 11  1  0
 14 11  1  0
 15 17  1  0
 15 16  2  0
 17 18  1  0
 19 17  1  0
 19 22  1  0
 19 20  1  6
 21 19  1  0
 22 23  2  0
 24 22  1  0
 24 25  1  0
 26 27  1  1
 26 24  1  0
 28 31  1  1
 28 26  1  0
 29 28  1  0
 30 28  1  0
 32 34  1  0
 32 26  1  0
 33 32  2  0
 34 36  1  0
 35 34  1  0
 36 38  1  1
 36 37  1  0
 39 36  1  0
M  END
$$$$
