-61.76923921
     RDKit          3D

 39 38  0  0  1  0  0  0  0  0999 V2000
   -2.0404    1.4190    2.9645 H   0  0  0  0  0  0  0  0  0  0  0  0
   -2.3458    0.9268    2.0455 C   0  0  1  0  0  0  0  0  0  0  0  0
   -3.4051    1.1011    1.8705 H   0  0  0  0  0  0  0  0  0  0  0  0
   -2.1945   -0.1459    2.1441 H   0  0  0  0  0  0  0  0  0  0  0  0
   -1.5352    1.4688    0.9038 C   0  0  0  0  0  0  0  0  0  0  0  0
   -0.6166    2.2625    1.0418 O   0  0  0  0  0  0  0  0  0  0  0  0
   -1.8559    1.0257   -0.3320 N   0  0  0  0  0  0  0  0  0  0  0  0
   -1.3383    1.4483   -1.0923 H   0  0  0  0  0  0  0  0  0  0  0  0
   -2.7654   -0.0405   -0.6918 C   0  0  1  0  0  0  0  0  0  0  0  0
   -3.7822    0.2188   -0.3654 H   0  0  0  0  0  0  0  0  0  0  0  0
   -2.7610   -0.2223   -2.2074 C   0  0  1  0  0  0  0  0  0  0  0  0
   -3.4597   -1.0080   -2.4814 H   0  0  0  0  0  0  0  0  0  0  0  0
   -3.0651    0.6993   -2.6999 H   0  0  0  0  0  0  0  0  0  0  0  0
   -1.7697   -0.5036   -2.5569 H   0  0  0  0  0  0  0  0  0  0  0  0
   -2.4728   -1.4079   -0.0353 C   0  0  0  0  0  0  0  0  0  0  0  0
   -3.3991   -2.0597    0.4061 O   0  0  0  0  0  0  0  0  0  0  0  0
   -1.2185   -1.8848   -0.0327 N   0  0  0  0  0  0  0  0  0  0  0  0
   -1.1004   -2.7930    0.4121 H   0  0  0  0  0  0  0  0  0  0  0  0
    0.0438   -1.2790   -0.3742 C   0  0  1  0  0  0  0  0  0  0  0  0
    0.4036   -1.6480   -1.3448 H   0  0  0  0  0  0  0  0  0  0  0  0
   -0.0259   -0.1981   -0.4139 H   0  0  0  0  0  0  0  0  0  0  0  0
    1.0738   -1.7216    0.6683 C   0  0  0  0  0  0  0  0  0  0  0  0
    0.9967   -2.8176    1.1859 O   0  0  0  0  0  0  0  0  0  0  0  0
    2.0390   -0.8464    0.9945 N   0  0  0  0  0  0  0  0  0  0  0  0
    2.7489   -1.2209    1.6093 H   0  0  0  0  0  0  0  0  0  0  0  0
    2.2347    0.5158    0.5403 C   0  0  1  0  0  0  0  0  0  0  0  0
    1.3884    1.1344    0.8651 H   0  0  0  0  0  0  0  0  0  0  0  0
    3.5222    1.0526    1.1637 C   0  0  1  0  0  0  0  0  0  0  0  0
    3.6833    2.0875    0.8784 H   0  0  0  0  0  0  0  0  0  0  0  0
    3.4582    1.0032    2.2482 H   0  0  0  0  0  0  0  0  0  0  0  0
    4.3716    0.4610    0.8279 H   0  0  0  0  0  0  0  0  0  0  0  0
    2.3626    0.5563   -0.9885 C   0  0  0  0  0  0  0  0  0  0  0  0
    2.6682   -0.4276   -1.6334 O   0  0  0  0  0  0  0  0  0  0  0  0
    2.1036    1.7301   -1.5990 N   0  0  0  0  0  0  0  0  0  0  0  0
    2.2945    1.7171   -2.5922 H   0  0  0  0  0  0  0  0  0  0  0  0
    1.7658    3.0134   -1.0261 C   0  0  1  0  0  0  0  0  0  0  0  0
    1.0524    2.9042   -0.2088 H   0  0  0  0  0  0  0  0  0  0  0  0
    2.6513    3.5367   -0.6558 H   0  0  0  0  0  0  0  0  0  0  0  0
    1.3089    3.6270   -1.8003 H   0  0  0  0  0  0  0  0  0  0  0  0
  2  4  1  1
  2  1  1  0
  3  2  1  0
  5  6  2  0
  5  2  1  0
  7  5  1  0
  8  7  1  0
  9 10  1  1
  9  7  1  0
  9 15  1  0
 11  9  1  0
 11 12  1  1
 13 11  1  0
 14 11  1  0
 15 17  1  0
 15 16  2  0
 17 18  1  0
 19 17  1  0
 19 22  1  0
 19 20  1  6
 21 19  1  0
 22 24  1  0
 22 23  2  0
 24 25  1  0
 26 27  1  6
 26 24  1  0
 26 28  1  0
 28 30  1  1
 29 28  1  0
 31 28  1  0
 32 26  1  0
 33 32  2  0
 34 36  1  0
 34 32  1  0
 35 34  1  0
 36 38  1  1
 36 37  1  0
 39 36  1  0
M  END
$$$$
