Coordinates from ORCA-job xad
     RDKit          3D

 23 22  0  0  0  0  0  0  0  0999 V2000
    1.0630    0.5780   -0.0800 N   0  0  0  0  0  0  0  0  0  0  0  0
   -0.1470    0.6780    0.7150 C   0  0  2  0  0  0  0  0  0  0  0  0
   -1.2650   -0.1680    0.0940 C   0  0  0  0  0  0  0  0  0  0  0  0
   -2.2180    0.3490   -0.4970 O   0  0  0  0  0  0  0  0  0  0  0  0
   -0.5620    2.1380    0.7660 C   0  0  1  0  0  0  0  0  0  0  0  0
   -0.7000    2.6610   -0.5440 O   0  0  0  0  0  0  0  0  0  0  0  0
    1.1830    1.2790   -0.7940 H   0  0  0  0  0  0  0  0  0  0  0  0
    0.0770    0.3000    1.7130 H   0  0  0  0  0  0  0  0  0  0  0  0
   -1.4890    2.2300    1.3360 H   0  0  0  0  0  0  0  0  0  0  0  0
    0.2130    2.7190    1.2610 H   0  0  0  0  0  0  0  0  0  0  0  0
   -1.4330    2.1450   -0.9170 H   0  0  0  0  0  0  0  0  0  0  0  0
   -1.0930   -1.4930    0.2500 N   0  0  0  0  0  0  0  0  0  0  0  0
   -0.2060   -1.7850    0.6470 H   0  0  0  0  0  0  0  0  0  0  0  0
   -1.9820   -2.4580   -0.3610 C   0  0  1  0  0  0  0  0  0  0  0  0
   -1.5520   -2.8770   -1.2700 H   0  0  0  0  0  0  0  0  0  0  0  0
   -2.1910   -3.2640    0.3370 H   0  0  0  0  0  0  0  0  0  0  0  0
   -2.9070   -1.9490   -0.6140 H   0  0  0  0  0  0  0  0  0  0  0  0
    1.9230   -0.4590    0.0350 C   0  0  0  0  0  0  0  0  0  0  0  0
    1.7240   -1.3970    0.8100 O   0  0  0  0  0  0  0  0  0  0  0  0
    3.1560   -0.3880   -0.8280 C   0  0  2  0  0  0  0  0  0  0  0  0
    4.0260   -0.3100   -0.1780 H   0  0  0  0  0  0  0  0  0  0  0  0
    3.1480    0.4540   -1.5150 H   0  0  0  0  0  0  0  0  0  0  0  0
    3.2440   -1.3160   -1.3870 H   0  0  0  0  0  0  0  0  0  0  0  0
  1  7  1  0
  1 18  1  0
  1  2  1  0
  2  3  1  0
  2  5  1  0
  2  8  1  1
  3  4  1  0
  3 12  1  0
  5  6  1  0
  5 10  1  1
  5  9  1  0
  6 11  1  0
 12 14  1  0
 12 13  1  0
 14 15  1  6
 14 17  1  0
 14 16  1  0
 18 20  1  0
 18 19  1  0
 20 22  1  6
 20 23  1  0
 20 21  1  0
M  END
$$$$
