Coordinates from ORCA-job xaq
     RDKit          3D

 29 29  0  0  0  0  0  0  0  0999 V2000
   -0.1840    1.1130    0.0830 N   0  0  0  0  0  0  0  0  0  0  0  0
   -1.0540    0.7670   -0.2980 H   0  0  0  0  0  0  0  0  0  0  0  0
    0.4810    0.2640    1.0560 C   0  0  1  0  0  0  0  0  0  0  0  0
    0.9090    0.9200    1.8170 H   0  0  0  0  0  0  0  0  0  0  0  0
   -0.5560   -0.6660    1.6930 C   0  0  2  0  0  0  0  0  0  0  0  0
    1.6440   -0.5190    0.4250 C   0  0  0  0  0  0  0  0  0  0  0  0
   -1.1850   -0.0730    2.3570 H   0  0  0  0  0  0  0  0  0  0  0  0
   -0.0310   -1.4050    2.2960 H   0  0  0  0  0  0  0  0  0  0  0  0
   -1.4390   -1.3200    0.6890 C   0  0  2  0  0  0  0  0  0  0  0  0
    1.6500   -1.7520    0.3420 O   0  0  0  0  0  0  0  0  0  0  0  0
   -1.0010   -2.2750   -0.1890 N   0  0  0  0  0  0  0  0  0  0  0  0
   -2.7650   -1.1150    0.3490 C   0  0  0  0  0  0  0  0  0  0  0  0
   -0.0300   -2.5670   -0.2230 H   0  0  0  0  0  0  0  0  0  0  0  0
   -2.0420   -2.6040   -0.9980 C   0  0  0  0  0  0  0  0  0  0  0  0
   -3.1360   -1.9190   -0.6980 N   0  0  0  0  0  0  0  0  0  0  0  0
   -3.4660   -0.4500    0.8280 H   0  0  0  0  0  0  0  0  0  0  0  0
   -1.9570   -3.3380   -1.7800 H   0  0  0  0  0  0  0  0  0  0  0  0
    0.2710    2.3390   -0.2610 C   0  0  0  0  0  0  0  0  0  0  0  0
   -0.6260    3.1360   -1.1720 C   0  0  2  0  0  0  0  0  0  0  0  0
    1.3450    2.7840    0.1510 O   0  0  0  0  0  0  0  0  0  0  0  0
   -1.4520    2.5540   -1.5700 H   0  0  0  0  0  0  0  0  0  0  0  0
   -0.0290    3.5330   -1.9890 H   0  0  0  0  0  0  0  0  0  0  0  0
   -1.0220    3.9800   -0.6110 H   0  0  0  0  0  0  0  0  0  0  0  0
    2.6440    0.2700    0.0020 N   0  0  0  0  0  0  0  0  0  0  0  0
    3.8180   -0.2540   -0.6620 C   0  0  1  0  0  0  0  0  0  0  0  0
    2.5010    1.2730    0.0940 H   0  0  0  0  0  0  0  0  0  0  0  0
    3.8230    0.0130   -1.7180 H   0  0  0  0  0  0  0  0  0  0  0  0
    4.7190    0.1350   -0.1950 H   0  0  0  0  0  0  0  0  0  0  0  0
    3.8010   -1.3350   -0.5690 H   0  0  0  0  0  0  0  0  0  0  0  0
  1  2  1  0
  1 18  1  0
  1  3  1  0
  3  6  1  0
  3  5  1  0
  3  4  1  1
  5  9  1  0
  5  8  1  1
  5  7  1  0
  6 24  1  0
  6 10  1  0
  9 11  1  0
  9 12  1  6
 11 14  1  0
 11 13  1  0
 12 15  1  0
 12 16  1  0
 14 17  1  0
 14 15  1  0
 18 19  1  0
 18 20  1  0
 19 22  1  6
 19 21  1  0
 19 23  1  0
 24 25  1  0
 24 26  1  0
 25 27  1  6
 25 29  1  0
 25 28  1  0
M  END
$$$$
