Coordinates from ORCA-job xah
     RDKit          3D

 29 29  0  0  0  0  0  0  0  0999 V2000
    1.6750   -1.0100    0.5290 N   0  0  0  0  0  0  0  0  0  0  0  0
    1.7100   -1.3970    1.4570 H   0  0  0  0  0  0  0  0  0  0  0  0
    0.4130   -0.4570    0.0560 C   0  0  1  0  0  0  0  0  0  0  0  0
    0.3740   -0.6290   -1.0200 H   0  0  0  0  0  0  0  0  0  0  0  0
   -0.7430   -1.1740    0.7440 C   0  0  1  0  0  0  0  0  0  0  0  0
    0.3860    1.0550    0.3210 C   0  0  0  0  0  0  0  0  0  0  0  0
   -0.5980   -2.2470    0.6130 H   0  0  0  0  0  0  0  0  0  0  0  0
   -0.7020   -0.9540    1.8130 H   0  0  0  0  0  0  0  0  0  0  0  0
   -2.0760   -0.8190    0.1900 C   0  0  0  0  0  0  0  0  0  0  0  0
   -0.2860    1.5540    1.2290 O   0  0  0  0  0  0  0  0  0  0  0  0
   -2.6780    0.3970    0.3900 N   0  0  0  0  0  0  0  0  0  0  0  0
   -2.9790   -1.5340   -0.5740 C   0  0  0  0  0  0  0  0  0  0  0  0
   -2.2270    1.1570    0.8810 H   0  0  0  0  0  0  0  0  0  0  0  0
   -3.8780    0.3740   -0.2470 C   0  0  0  0  0  0  0  0  0  0  0  0
   -4.0970   -0.7890   -0.8440 N   0  0  0  0  0  0  0  0  0  0  0  0
   -2.8740   -2.5450   -0.9300 H   0  0  0  0  0  0  0  0  0  0  0  0
   -4.5480    1.2160   -0.2480 H   0  0  0  0  0  0  0  0  0  0  0  0
    2.8080   -0.9710   -0.2160 C   0  0  0  0  0  0  0  0  0  0  0  0
    4.0150   -1.6440    0.3830 C   0  0  2  0  0  0  0  0  0  0  0  0
    2.8470   -0.4280   -1.3200 O   0  0  0  0  0  0  0  0  0  0  0  0
    4.8170   -0.9130    0.4610 H   0  0  0  0  0  0  0  0  0  0  0  0
    4.3450   -2.4240   -0.2990 H   0  0  0  0  0  0  0  0  0  0  0  0
    3.8250   -2.0790    1.3600 H   0  0  0  0  0  0  0  0  0  0  0  0
    1.1750    1.7550   -0.5110 N   0  0  0  0  0  0  0  0  0  0  0  0
    1.3740    3.1810   -0.3630 C   0  0  1  0  0  0  0  0  0  0  0  0
    1.7710    1.2140   -1.1290 H   0  0  0  0  0  0  0  0  0  0  0  0
    1.3880    3.6550   -1.3400 H   0  0  0  0  0  0  0  0  0  0  0  0
    0.5510    3.5770    0.2230 H   0  0  0  0  0  0  0  0  0  0  0  0
    2.3090    3.4010    0.1530 H   0  0  0  0  0  0  0  0  0  0  0  0
  1 18  1  0
  1  3  1  0
  1  2  1  0
  3  4  1  6
  3  6  1  0
  3  5  1  0
  5  9  1  0
  5  7  1  1
  5  8  1  0
  6 24  1  0
  6 10  1  0
  9 12  1  0
  9 11  1  0
 11 14  1  0
 11 13  1  0
 12 16  1  0
 12 15  1  0
 14 15  1  0
 14 17  1  0
 18 20  1  0
 18 19  1  0
 19 22  1  6
 19 21  1  0
 19 23  1  0
 24 26  1  0
 24 25  1  0
 25 27  1  6
 25 29  1  0
 25 28  1  0
M  END
$$$$
