Coordinates from ORCA-job xau
     RDKit          3D

 29 29  0  0  0  0  0  0  0  0999 V2000
   -1.6510    0.1050   -0.3060 N   0  0  0  0  0  0  0  0  0  0  0  0
   -1.5130    0.3630   -1.2760 H   0  0  0  0  0  0  0  0  0  0  0  0
   -0.7340    0.7590    0.5980 C   0  0  1  0  0  0  0  0  0  0  0  0
   -1.2920    1.4200    1.2660 H   0  0  0  0  0  0  0  0  0  0  0  0
    0.0350   -0.2680    1.4510 C   0  0  1  0  0  0  0  0  0  0  0  0
    0.2190    1.5730   -0.2750 C   0  0  0  0  0  0  0  0  0  0  0  0
    0.5440    0.2340    2.2750 H   0  0  0  0  0  0  0  0  0  0  0  0
   -0.7070   -0.9280    1.9010 H   0  0  0  0  0  0  0  0  0  0  0  0
    1.0500   -1.0080    0.6590 C   0  0  1  0  0  0  0  0  0  0  0  0
    0.1280    1.5700   -1.5000 O   0  0  0  0  0  0  0  0  0  0  0  0
    0.7370   -1.7950   -0.4220 N   0  0  0  0  0  0  0  0  0  0  0  0
    2.4290   -1.0600    0.7300 C   0  0  0  0  0  0  0  0  0  0  0  0
   -0.1930   -1.9280   -0.7820 H   0  0  0  0  0  0  0  0  0  0  0  0
    1.9000   -2.2710   -0.9450 C   0  0  0  0  0  0  0  0  0  0  0  0
    2.9510   -1.8460   -0.2640 N   0  0  0  0  0  0  0  0  0  0  0  0
    3.0590   -0.5780    1.4590 H   0  0  0  0  0  0  0  0  0  0  0  0
    1.9250   -2.9120   -1.8090 H   0  0  0  0  0  0  0  0  0  0  0  0
   -2.8770   -0.3010    0.1410 C   0  0  0  0  0  0  0  0  0  0  0  0
   -3.8430   -0.7410   -0.9310 C   0  0  2  0  0  0  0  0  0  0  0  0
   -3.1590   -0.3230    1.3330 O   0  0  0  0  0  0  0  0  0  0  0  0
   -4.6790   -0.0460   -0.9480 H   0  0  0  0  0  0  0  0  0  0  0  0
   -4.2350   -1.7200   -0.6690 H   0  0  0  0  0  0  0  0  0  0  0  0
   -3.3920   -0.7800   -1.9200 H   0  0  0  0  0  0  0  0  0  0  0  0
    1.1510    2.2850    0.3920 N   0  0  0  0  0  0  0  0  0  0  0  0
    2.2340    2.9300   -0.3260 C   0  0  1  0  0  0  0  0  0  0  0  0
    1.2550    2.1230    1.3780 H   0  0  0  0  0  0  0  0  0  0  0  0
    2.7190    3.6450    0.3310 H   0  0  0  0  0  0  0  0  0  0  0  0
    2.9650    2.2010   -0.6770 H   0  0  0  0  0  0  0  0  0  0  0  0
    1.8250    3.4500   -1.1860 H   0  0  0  0  0  0  0  0  0  0  0  0
  1  2  1  0
  1 18  1  0
  1  3  1  0
  3  6  1  0
  3  4  1  1
  3  5  1  0
  5  9  1  0
  5  8  1  1
  5  7  1  0
  6 10  1  0
  6 24  1  0
  9 11  1  0
  9 12  1  6
 11 14  1  0
 11 13  1  0
 12 15  1  0
 12 16  1  0
 14 17  1  0
 14 15  1  0
 18 19  1  0
 18 20  1  0
 19 23  1  6
 19 21  1  0
 19 22  1  0
 24 25  1  0
 24 26  1  0
 25 29  1  6
 25 28  1  0
 25 27  1  0
M  END
$$$$
