-69.00892064
     RDKit          3D

 43 42  0  0  1  0  0  0  0  0999 V2000
   -1.8521   -1.6063    2.1565 H   0  0  0  0  0  0  0  0  0  0  0  0
   -2.8040   -1.2233    1.7964 C   0  0  1  0  0  0  0  0  0  0  0  0
   -3.2759   -0.6294    2.5742 H   0  0  0  0  0  0  0  0  0  0  0  0
   -3.4450   -2.0687    1.5553 H   0  0  0  0  0  0  0  0  0  0  0  0
   -2.6104   -0.3646    0.5720 C   0  0  0  0  0  0  0  0  0  0  0  0
   -2.9814    0.7973    0.5127 O   0  0  0  0  0  0  0  0  0  0  0  0
   -2.0220   -0.9529   -0.4928 N   0  0  0  0  0  0  0  0  0  0  0  0
   -1.8444   -0.3355   -1.2775 H   0  0  0  0  0  0  0  0  0  0  0  0
   -1.2435   -2.1755   -0.4795 C   0  0  1  0  0  0  0  0  0  0  0  0
   -1.8007   -2.9556    0.0498 H   0  0  0  0  0  0  0  0  0  0  0  0
   -0.9580   -2.6265   -1.9070 C   0  0  2  0  0  0  0  0  0  0  0  0
   -0.4538   -1.8410   -2.4652 H   0  0  0  0  0  0  0  0  0  0  0  0
   -1.8884   -2.8725   -2.4134 H   0  0  0  0  0  0  0  0  0  0  0  0
   -0.3195   -3.5059   -1.8947 H   0  0  0  0  0  0  0  0  0  0  0  0
    0.0683   -1.9563    0.2951 C   0  0  0  0  0  0  0  0  0  0  0  0
    0.3436   -2.6008    1.2930 O   0  0  0  0  0  0  0  0  0  0  0  0
    0.8363   -0.9674   -0.1838 N   0  0  0  0  0  0  0  0  0  0  0  0
    0.5494   -0.4144   -0.9878 H   0  0  0  0  0  0  0  0  0  0  0  0
    2.1041   -0.6430    0.4331 C   0  0  1  0  0  0  0  0  0  0  0  0
    2.0051   -0.8571    1.5091 H   0  0  0  0  0  0  0  0  0  0  0  0
    3.2210   -1.5444   -0.1416 C   0  0  1  0  0  0  0  0  0  0  0  0
    3.4440   -1.2416   -1.1674 H   0  0  0  0  0  0  0  0  0  0  0  0
    4.1264   -1.4036    0.4634 H   0  0  0  0  0  0  0  0  0  0  0  0
    2.8443   -2.8909   -0.2033 O   0  0  0  0  0  0  0  0  0  0  0  0
    2.4428   -3.1448    0.6389 H   0  0  0  0  0  0  0  0  0  0  0  0
    2.5089    0.8206    0.2608 C   0  0  0  0  0  0  0  0  0  0  0  0
    3.6503    1.1278   -0.0150 O   0  0  0  0  0  0  0  0  0  0  0  0
    1.5904    1.7901    0.4788 N   0  0  0  0  0  0  0  0  0  0  0  0
    1.9583    2.7180    0.3040 H   0  0  0  0  0  0  0  0  0  0  0  0
    0.1680    1.7433    0.7461 C   0  0  1  0  0  0  0  0  0  0  0  0
   -0.0806    0.7453    1.1190 H   0  0  0  0  0  0  0  0  0  0  0  0
   -0.1855    2.7649    1.8215 C   0  0  1  0  0  0  0  0  0  0  0  0
    0.4268    2.5794    2.7013 H   0  0  0  0  0  0  0  0  0  0  0  0
    0.0064    3.7810    1.4821 H   0  0  0  0  0  0  0  0  0  0  0  0
   -1.2287    2.6603    2.1096 H   0  0  0  0  0  0  0  0  0  0  0  0
   -0.5779    1.9119   -0.5958 C   0  0  0  0  0  0  0  0  0  0  0  0
   -0.2941    1.1796   -1.5373 O   0  0  0  0  0  0  0  0  0  0  0  0
   -1.4646    2.9022   -0.6891 N   0  0  0  0  0  0  0  0  0  0  0  0
   -1.7964    3.3378    0.1558 H   0  0  0  0  0  0  0  0  0  0  0  0
   -2.3124    3.0544   -1.8494 C   0  0  1  0  0  0  0  0  0  0  0  0
   -2.4612    4.1132   -2.0549 H   0  0  0  0  0  0  0  0  0  0  0  0
   -1.8212    2.5809   -2.6974 H   0  0  0  0  0  0  0  0  0  0  0  0
   -3.2776    2.5744   -1.6761 H   0  0  0  0  0  0  0  0  0  0  0  0
  2  1  1  1
  2  3  1  0
  4  2  1  0
  5  2  1  0
  6  5  2  0
  7  9  1  0
  7  5  1  0
  8  7  1  0
  9 10  1  1
  9 15  1  0
 11 14  1  1
 11  9  1  0
 12 11  1  0
 13 11  1  0
 15 16  2  0
 17 15  1  0
 17 19  1  0
 18 17  1  0
 19 20  1  1
 21 19  1  0
 21 23  1  1
 22 21  1  0
 24 21  1  0
 24 25  1  0
 26 19  1  0
 26 28  1  0
 27 26  2  0
 28 30  1  0
 29 28  1  0
 30 31  1  1
 30 32  1  0
 32 35  1  1
 32 33  1  0
 34 32  1  0
 36 30  1  0
 37 36  2  0
 38 36  1  0
 38 39  1  0
 40 43  1  1
 40 38  1  0
 41 40  1  0
 42 40  1  0
M  END
$$$$
