-69.01101969
     RDKit          3D

 43 42  0  0  1  0  0  0  0  0999 V2000
   -3.3426   -2.2550    1.4264 H   0  0  0  0  0  0  0  0  0  0  0  0
   -2.6679   -1.4567    1.7285 C   0  0  1  0  0  0  0  0  0  0  0  0
   -1.7036   -1.8974    1.9702 H   0  0  0  0  0  0  0  0  0  0  0  0
   -3.0715   -0.9614    2.6071 H   0  0  0  0  0  0  0  0  0  0  0  0
   -2.5366   -0.4507    0.6132 C   0  0  0  0  0  0  0  0  0  0  0  0
   -2.8666    0.7188    0.7327 O   0  0  0  0  0  0  0  0  0  0  0  0
   -2.0593   -0.9119   -0.5645 N   0  0  0  0  0  0  0  0  0  0  0  0
   -1.9174   -0.1984   -1.2723 H   0  0  0  0  0  0  0  0  0  0  0  0
   -1.3080   -2.1335   -0.7629 C   0  0  1  0  0  0  0  0  0  0  0  0
   -1.8641   -2.9797   -0.3446 H   0  0  0  0  0  0  0  0  0  0  0  0
   -1.0753   -2.3584   -2.2528 C   0  0  2  0  0  0  0  0  0  0  0  0
   -0.4949   -3.2646   -2.4047 H   0  0  0  0  0  0  0  0  0  0  0  0
   -0.5351   -1.5194   -2.6862 H   0  0  0  0  0  0  0  0  0  0  0  0
   -2.0285   -2.4635   -2.7658 H   0  0  0  0  0  0  0  0  0  0  0  0
    0.0361   -2.0674   -0.0125 C   0  0  0  0  0  0  0  0  0  0  0  0
    0.3741   -2.9493    0.7596 O   0  0  0  0  0  0  0  0  0  0  0  0
    0.7474   -0.9620   -0.2635 N   0  0  0  0  0  0  0  0  0  0  0  0
    0.3867   -0.2686   -0.9192 H   0  0  0  0  0  0  0  0  0  0  0  0
    1.9907   -0.6316    0.4214 C   0  0  1  0  0  0  0  0  0  0  0  0
    1.8054   -0.5792    1.5063 H   0  0  0  0  0  0  0  0  0  0  0  0
    3.0806   -1.7063    0.2102 C   0  0  1  0  0  0  0  0  0  0  0  0
    2.9461   -2.1531   -0.7857 H   0  0  0  0  0  0  0  0  0  0  0  0
    4.0600   -1.2239    0.2414 H   0  0  0  0  0  0  0  0  0  0  0  0
    3.0771   -2.6749    1.2140 O   0  0  0  0  0  0  0  0  0  0  0  0
    2.1834   -3.0648    1.2407 H   0  0  0  0  0  0  0  0  0  0  0  0
    2.4796    0.7391   -0.0540 C   0  0  0  0  0  0  0  0  0  0  0  0
    3.5494    0.9014   -0.5976 O   0  0  0  0  0  0  0  0  0  0  0  0
    1.6849    1.8049    0.2081 N   0  0  0  0  0  0  0  0  0  0  0  0
    2.0562    2.6726   -0.1604 H   0  0  0  0  0  0  0  0  0  0  0  0
    0.3320    1.8927    0.7153 C   0  0  1  0  0  0  0  0  0  0  0  0
    0.0783    0.9472    1.2061 H   0  0  0  0  0  0  0  0  0  0  0  0
    0.2409    3.0204    1.7389 C   0  0  1  0  0  0  0  0  0  0  0  0
    1.0209    2.8839    2.4847 H   0  0  0  0  0  0  0  0  0  0  0  0
    0.3847    3.9911    1.2688 H   0  0  0  0  0  0  0  0  0  0  0  0
   -0.7181    2.9975    2.2503 H   0  0  0  0  0  0  0  0  0  0  0  0
   -0.6183    2.0212   -0.4929 C   0  0  0  0  0  0  0  0  0  0  0  0
   -0.4547    1.2823   -1.4591 O   0  0  0  0  0  0  0  0  0  0  0  0
   -1.5444    2.9767   -0.4564 N   0  0  0  0  0  0  0  0  0  0  0  0
   -1.7502    3.4199    0.4240 H   0  0  0  0  0  0  0  0  0  0  0  0
   -2.5687    3.0808   -1.4710 C   0  0  1  0  0  0  0  0  0  0  0  0
   -3.4601    2.5314   -1.1617 H   0  0  0  0  0  0  0  0  0  0  0  0
   -2.8177    4.1286   -1.6286 H   0  0  0  0  0  0  0  0  0  0  0  0
   -2.1828    2.6518   -2.3938 H   0  0  0  0  0  0  0  0  0  0  0  0
  2  1  1  6
  2  3  1  0
  2  4  1  0
  5  6  2  0
  5  2  1  0
  7  5  1  0
  8  7  1  0
  9  7  1  0
  9 10  1  1
  9 15  1  0
 11  9  1  0
 11 12  1  1
 13 11  1  0
 14 11  1  0
 15 16  2  0
 17 15  1  0
 17 19  1  0
 18 17  1  0
 19 20  1  1
 21 23  1  6
 21 19  1  0
 21 24  1  0
 22 21  1  0
 24 25  1  0
 26 28  1  0
 26 19  1  0
 27 26  2  0
 28 30  1  0
 29 28  1  0
 30 31  1  1
 30 32  1  0
 32 35  1  1
 32 33  1  0
 34 32  1  0
 36 38  1  0
 36 30  1  0
 37 36  2  0
 38 39  1  0
 40 41  1  1
 40 38  1  0
 42 40  1  0
 43 40  1  0
M  END
$$$$
