-69.00655546
     RDKit          3D

 43 42  0  0  1  0  0  0  0  0999 V2000
   -3.9301    0.4132   -1.5233 H   0  0  0  0  0  0  0  0  0  0  0  0
   -2.9432    0.0292   -1.7712 C   0  0  1  0  0  0  0  0  0  0  0  0
   -2.3202    0.8764   -2.0550 H   0  0  0  0  0  0  0  0  0  0  0  0
   -3.0226   -0.6556   -2.6100 H   0  0  0  0  0  0  0  0  0  0  0  0
   -2.3486   -0.6267   -0.5487 C   0  0  0  0  0  0  0  0  0  0  0  0
   -2.2773   -0.0715    0.5334 O   0  0  0  0  0  0  0  0  0  0  0  0
   -1.8593   -1.8706   -0.7395 N   0  0  0  0  0  0  0  0  0  0  0  0
   -1.9545   -2.3263   -1.6333 H   0  0  0  0  0  0  0  0  0  0  0  0
   -1.2867   -2.6420    0.3470 C   0  0  1  0  0  0  0  0  0  0  0  0
   -1.9467   -2.5581    1.2202 H   0  0  0  0  0  0  0  0  0  0  0  0
   -1.1398   -4.1035   -0.0582 C   0  0  2  0  0  0  0  0  0  0  0  0
   -0.6996   -4.6609    0.7639 H   0  0  0  0  0  0  0  0  0  0  0  0
   -0.4877   -4.1944   -0.9256 H   0  0  0  0  0  0  0  0  0  0  0  0
   -2.1101   -4.5350   -0.2938 H   0  0  0  0  0  0  0  0  0  0  0  0
    0.0789   -2.1105    0.8087 C   0  0  0  0  0  0  0  0  0  0  0  0
    0.5504   -2.4487    1.8759 O   0  0  0  0  0  0  0  0  0  0  0  0
    0.6970   -1.2789   -0.0446 N   0  0  0  0  0  0  0  0  0  0  0  0
    0.3009   -1.1116   -0.9563 H   0  0  0  0  0  0  0  0  0  0  0  0
    1.9639   -0.6260    0.2641 C   0  0  1  0  0  0  0  0  0  0  0  0
    1.8944   -0.2038    1.2739 H   0  0  0  0  0  0  0  0  0  0  0  0
    3.1377   -1.6231    0.2694 C   0  0  1  0  0  0  0  0  0  0  0  0
    2.9456   -2.4071   -0.4788 H   0  0  0  0  0  0  0  0  0  0  0  0
    4.0548   -1.1013   -0.0138 H   0  0  0  0  0  0  0  0  0  0  0  0
    3.3575   -2.1713    1.5364 O   0  0  0  0  0  0  0  0  0  0  0  0
    2.5011   -2.4647    1.8937 H   0  0  0  0  0  0  0  0  0  0  0  0
    2.1596    0.4900   -0.7712 C   0  0  0  0  0  0  0  0  0  0  0  0
    2.9589    0.3968   -1.6790 O   0  0  0  0  0  0  0  0  0  0  0  0
    1.3458    1.5505   -0.6410 N   0  0  0  0  0  0  0  0  0  0  0  0
    1.4552    2.2983   -1.3228 H   0  0  0  0  0  0  0  0  0  0  0  0
    0.3535    1.8501    0.3644 C   0  0  1  0  0  0  0  0  0  0  0  0
   -0.1480    0.9408    0.7036 H   0  0  0  0  0  0  0  0  0  0  0  0
    0.9690    2.5929    1.5584 C   0  0  1  0  0  0  0  0  0  0  0  0
    0.2022    2.8114    2.2966 H   0  0  0  0  0  0  0  0  0  0  0  0
    1.7451    1.9915    2.0252 H   0  0  0  0  0  0  0  0  0  0  0  0
    1.4116    3.5272    1.2206 H   0  0  0  0  0  0  0  0  0  0  0  0
   -0.6659    2.7950   -0.2949 C   0  0  0  0  0  0  0  0  0  0  0  0
   -0.3404    3.5312   -1.2069 O   0  0  0  0  0  0  0  0  0  0  0  0
   -1.8843    2.7629    0.2613 N   0  0  0  0  0  0  0  0  0  0  0  0
   -2.1276    1.9854    0.8620 H   0  0  0  0  0  0  0  0  0  0  0  0
   -2.9561    3.6210   -0.1844 C   0  0  1  0  0  0  0  0  0  0  0  0
   -3.3622    4.1816    0.6586 H   0  0  0  0  0  0  0  0  0  0  0  0
   -2.5473    4.3143   -0.9177 H   0  0  0  0  0  0  0  0  0  0  0  0
   -3.7583    3.0402   -0.6428 H   0  0  0  0  0  0  0  0  0  0  0  0
  2  1  1  1
  2  5  1  0
  3  2  1  0
  4  2  1  0
  5  6  2  0
  7  5  1  0
  7  9  1  0
  8  7  1  0
  9 15  1  0
  9 10  1  1
 11  9  1  0
 11 12  1  1
 13 11  1  0
 14 11  1  0
 15 16  2  0
 17 19  1  0
 17 15  1  0
 18 17  1  0
 19 21  1  0
 19 20  1  1
 21 24  1  0
 21 22  1  6
 23 21  1  0
 24 25  1  0
 26 28  1  0
 26 19  1  0
 27 26  2  0
 28 30  1  0
 29 28  1  0
 30 31  1  1
 30 32  1  0
 32 34  1  1
 32 33  1  0
 35 32  1  0
 36 38  1  0
 36 30  1  0
 37 36  2  0
 38 39  1  0
 40 38  1  0
 40 41  1  1
 42 40  1  0
 43 40  1  0
M  END
$$$$
