-69.01067305
     RDKit          3D

 43 42  0  0  1  0  0  0  0  0999 V2000
   -3.5119   -0.6178    2.4962 H   0  0  0  0  0  0  0  0  0  0  0  0
   -3.0100   -1.2187    1.7430 C   0  0  1  0  0  0  0  0  0  0  0  0
   -3.6616   -2.0384    1.4478 H   0  0  0  0  0  0  0  0  0  0  0  0
   -2.0970   -1.6381    2.1592 H   0  0  0  0  0  0  0  0  0  0  0  0
   -2.7055   -0.3526    0.5475 C   0  0  0  0  0  0  0  0  0  0  0  0
   -3.0235    0.8250    0.4848 O   0  0  0  0  0  0  0  0  0  0  0  0
   -2.0811   -0.9507   -0.4915 N   0  0  0  0  0  0  0  0  0  0  0  0
   -1.8284   -0.3305   -1.2533 H   0  0  0  0  0  0  0  0  0  0  0  0
   -1.3450   -2.1995   -0.4472 C   0  0  1  0  0  0  0  0  0  0  0  0
   -1.9555   -2.9622    0.0474 H   0  0  0  0  0  0  0  0  0  0  0  0
   -1.0030   -2.6519   -1.8612 C   0  0  2  0  0  0  0  0  0  0  0  0
   -0.4336   -1.8886   -2.3865 H   0  0  0  0  0  0  0  0  0  0  0  0
   -1.9157   -2.8502   -2.4186 H   0  0  0  0  0  0  0  0  0  0  0  0
   -0.4095   -3.5615   -1.8248 H   0  0  0  0  0  0  0  0  0  0  0  0
   -0.0784   -2.0114    0.4111 C   0  0  0  0  0  0  0  0  0  0  0  0
    0.0934   -2.6180    1.4512 O   0  0  0  0  0  0  0  0  0  0  0  0
    0.7632   -1.0734   -0.0493 N   0  0  0  0  0  0  0  0  0  0  0  0
    0.5609   -0.5547   -0.8983 H   0  0  0  0  0  0  0  0  0  0  0  0
    1.9845   -0.7495    0.6586 C   0  0  1  0  0  0  0  0  0  0  0  0
    1.7735   -0.7839    1.7374 H   0  0  0  0  0  0  0  0  0  0  0  0
    3.0788   -1.8039    0.3664 C   0  0  1  0  0  0  0  0  0  0  0  0
    3.9271   -1.6159    1.0385 H   0  0  0  0  0  0  0  0  0  0  0  0
    2.6683   -2.7931    0.5789 H   0  0  0  0  0  0  0  0  0  0  0  0
    3.4840   -1.8097   -0.9706 O   0  0  0  0  0  0  0  0  0  0  0  0
    3.8949   -0.9482   -1.1401 H   0  0  0  0  0  0  0  0  0  0  0  0
    2.4903    0.6422    0.2822 C   0  0  0  0  0  0  0  0  0  0  0  0
    3.6265    0.8207   -0.1179 O   0  0  0  0  0  0  0  0  0  0  0  0
    1.6645    1.6956    0.4511 N   0  0  0  0  0  0  0  0  0  0  0  0
    2.0720    2.5712    0.1433 H   0  0  0  0  0  0  0  0  0  0  0  0
    0.2494    1.7576    0.7506 C   0  0  1  0  0  0  0  0  0  0  0  0
   -0.0518    0.8066    1.2010 H   0  0  0  0  0  0  0  0  0  0  0  0
   -0.0145    2.8816    1.7468 C   0  0  1  0  0  0  0  0  0  0  0  0
    0.1940    3.8555    1.3082 H   0  0  0  0  0  0  0  0  0  0  0  0
   -1.0440    2.8466    2.0943 H   0  0  0  0  0  0  0  0  0  0  0  0
    0.6345    2.7498    2.6099 H   0  0  0  0  0  0  0  0  0  0  0  0
   -0.5113    1.8691   -0.5895 C   0  0  0  0  0  0  0  0  0  0  0  0
   -0.2231    1.1093   -1.5065 O   0  0  0  0  0  0  0  0  0  0  0  0
   -1.4173    2.8398   -0.7041 N   0  0  0  0  0  0  0  0  0  0  0  0
   -1.7527    3.2918    0.1308 H   0  0  0  0  0  0  0  0  0  0  0  0
   -2.2834    2.9347   -1.8575 C   0  0  1  0  0  0  0  0  0  0  0  0
   -2.4600    3.9828   -2.0935 H   0  0  0  0  0  0  0  0  0  0  0  0
   -1.7920    2.4464   -2.6969 H   0  0  0  0  0  0  0  0  0  0  0  0
   -3.2338    2.4377   -1.6538 H   0  0  0  0  0  0  0  0  0  0  0  0
  2  4  1  1
  2  1  1  0
  3  2  1  0
  5  2  1  0
  6  5  2  0
  7  9  1  0
  7  5  1  0
  8  7  1  0
  9 10  1  1
  9 15  1  0
 11 14  1  1
 11  9  1  0
 12 11  1  0
 13 11  1  0
 15 16  2  0
 17 15  1  0
 17 19  1  0
 18 17  1  0
 19 20  1  1
 21 23  1  1
 21 19  1  0
 21 22  1  0
 24 21  1  0
 25 24  1  0
 26 28  1  0
 26 19  1  0
 27 26  2  0
 28 30  1  0
 29 28  1  0
 30 31  1  1
 30 32  1  0
 32 34  1  1
 32 35  1  0
 33 32  1  0
 36 30  1  0
 37 36  2  0
 38 36  1  0
 38 39  1  0
 40 43  1  1
 40 38  1  0
 41 40  1  0
 42 40  1  0
M  END
$$$$
