-69.00969246
     RDKit          3D

 43 42  0  0  1  0  0  0  0  0999 V2000
   -1.0865   -5.7658    0.1106 H   0  0  0  0  0  0  0  0  0  0  0  0
   -1.3201   -4.9819   -0.6035 C   0  0  1  0  0  0  0  0  0  0  0  0
   -2.1933   -5.2620   -1.1873 H   0  0  0  0  0  0  0  0  0  0  0  0
   -0.4695   -4.8590   -1.2717 H   0  0  0  0  0  0  0  0  0  0  0  0
   -1.5451   -3.6886    0.1397 C   0  0  0  0  0  0  0  0  0  0  0  0
   -1.2312   -3.5336    1.3070 O   0  0  0  0  0  0  0  0  0  0  0  0
   -2.1117   -2.7178   -0.6114 N   0  0  0  0  0  0  0  0  0  0  0  0
   -2.2472   -2.9099   -1.5906 H   0  0  0  0  0  0  0  0  0  0  0  0
   -2.4701   -1.3766   -0.1661 C   0  0  1  0  0  0  0  0  0  0  0  0
   -3.0505   -0.9188   -0.9737 H   0  0  0  0  0  0  0  0  0  0  0  0
   -3.3212   -1.4028    1.1049 C   0  0  2  0  0  0  0  0  0  0  0  0
   -2.7790   -1.8743    1.9188 H   0  0  0  0  0  0  0  0  0  0  0  0
   -4.2359   -1.9631    0.9247 H   0  0  0  0  0  0  0  0  0  0  0  0
   -3.5809   -0.3864    1.3888 H   0  0  0  0  0  0  0  0  0  0  0  0
   -1.2389   -0.4814    0.0351 C   0  0  0  0  0  0  0  0  0  0  0  0
   -1.1606    0.6137   -0.5042 O   0  0  0  0  0  0  0  0  0  0  0  0
   -0.3074   -0.9771    0.8485 N   0  0  0  0  0  0  0  0  0  0  0  0
   -0.4340   -1.9132    1.2391 H   0  0  0  0  0  0  0  0  0  0  0  0
    0.9898   -0.3532    1.0094 C   0  0  1  0  0  0  0  0  0  0  0  0
    0.9532    0.4198    1.7842 H   0  0  0  0  0  0  0  0  0  0  0  0
    2.0038   -1.4423    1.4240 C   0  0  1  0  0  0  0  0  0  0  0  0
    2.9997   -0.9761    1.5038 H   0  0  0  0  0  0  0  0  0  0  0  0
    1.7264   -1.8445    2.4030 H   0  0  0  0  0  0  0  0  0  0  0  0
    2.0160   -2.5162    0.5371 O   0  0  0  0  0  0  0  0  0  0  0  0
    2.0277   -2.1409   -0.3649 H   0  0  0  0  0  0  0  0  0  0  0  0
    1.4529    0.2094   -0.3389 C   0  0  0  0  0  0  0  0  0  0  0  0
    1.6599   -0.5534   -1.2729 O   0  0  0  0  0  0  0  0  0  0  0  0
    1.7167    1.5179   -0.4499 N   0  0  0  0  0  0  0  0  0  0  0  0
    2.0873    1.7818   -1.3553 H   0  0  0  0  0  0  0  0  0  0  0  0
    1.4086    2.6254    0.4317 C   0  0  1  0  0  0  0  0  0  0  0  0
    0.6611    2.3059    1.1637 H   0  0  0  0  0  0  0  0  0  0  0  0
    2.6635    3.1300    1.1374 C   0  0  1  0  0  0  0  0  0  0  0  0
    3.0985    2.3466    1.7534 H   0  0  0  0  0  0  0  0  0  0  0  0
    3.3946    3.4547    0.4020 H   0  0  0  0  0  0  0  0  0  0  0  0
    2.4113    3.9830    1.7600 H   0  0  0  0  0  0  0  0  0  0  0  0
    0.7630    3.7525   -0.4096 C   0  0  0  0  0  0  0  0  0  0  0  0
    1.2152    4.8773   -0.4520 O   0  0  0  0  0  0  0  0  0  0  0  0
   -0.3224    3.3363   -1.0753 N   0  0  0  0  0  0  0  0  0  0  0  0
   -0.6491    2.3832   -0.9617 H   0  0  0  0  0  0  0  0  0  0  0  0
   -1.0848    4.2089   -1.9335 C   0  0  1  0  0  0  0  0  0  0  0  0
   -2.1054    4.3154   -1.5621 H   0  0  0  0  0  0  0  0  0  0  0  0
   -0.5983    5.1833   -1.9393 H   0  0  0  0  0  0  0  0  0  0  0  0
   -1.1170    3.8107   -2.9490 H   0  0  0  0  0  0  0  0  0  0  0  0
  2  1  1  1
  2  5  1  0
  3  2  1  0
  4  2  1  0
  5  6  2  0
  7  9  1  0
  7  5  1  0
  8  7  1  0
  9 10  1  6
  9 15  1  0
  9 11  1  0
 11 14  1  1
 11 12  1  0
 13 11  1  0
 15 17  1  0
 16 15  2  0
 17 19  1  0
 17 18  1  0
 19 21  1  0
 19 20  1  1
 21 22  1  1
 21 23  1  0
 24 21  1  0
 25 24  1  0
 26 19  1  0
 27 26  2  0
 28 26  1  0
 28 30  1  0
 29 28  1  0
 30 32  1  0
 30 31  1  1
 32 33  1  1
 32 35  1  0
 34 32  1  0
 36 30  1  0
 37 36  2  0
 38 39  1  0
 38 36  1  0
 40 41  1  1
 40 38  1  0
 42 40  1  0
 43 40  1  0
M  END
$$$$
