-42.63238217
     RDKit          3D

 26 25  0  0  1  0  0  0  0  0999 V2000
   -1.4889    0.6448    0.1271 N   0  0  0  0  0  0  0  0  0  0  0  0
   -0.2696   -0.0955   -0.0752 C   0  0  2  0  0  0  0  0  0  0  0  0
   -0.5635   -1.5871    0.1315 C   0  0  0  0  0  0  0  0  0  0  0  0
   -1.6941   -1.9810    0.3503 O   0  0  0  0  0  0  0  0  0  0  0  0
    0.8643    0.3892    0.8575 C   0  0  2  0  0  0  0  0  0  0  0  0
    2.1131    0.4980   -0.0002 C   0  0  0  0  0  0  0  0  0  0  0  0
    2.8806   -0.4358   -0.1496 O   0  0  0  0  0  0  0  0  0  0  0  0
    2.2232    1.6822   -0.6186 N   0  0  0  0  0  0  0  0  0  0  0  0
   -2.2865    0.0800    0.3948 H   0  0  0  0  0  0  0  0  0  0  0  0
    0.0483    0.0422   -1.1207 H   0  0  0  0  0  0  0  0  0  0  0  0
    1.0234   -0.3128    1.6759 H   0  0  0  0  0  0  0  0  0  0  0  0
    0.6049    1.3630    1.2681 H   0  0  0  0  0  0  0  0  0  0  0  0
    2.9547    1.8178   -1.2978 H   0  0  0  0  0  0  0  0  0  0  0  0
    1.4294    2.3128   -0.6202 H   0  0  0  0  0  0  0  0  0  0  0  0
    0.5223   -2.3624    0.0384 N   0  0  0  0  0  0  0  0  0  0  0  0
    1.4349   -1.9402   -0.1028 H   0  0  0  0  0  0  0  0  0  0  0  0
    0.4711   -3.7938    0.2127 C   0  0  1  0  0  0  0  0  0  0  0  0
    1.0735   -4.0968    1.0706 H   0  0  0  0  0  0  0  0  0  0  0  0
   -0.5672   -4.0751    0.3809 H   0  0  0  0  0  0  0  0  0  0  0  0
    0.8450   -4.2981   -0.6794 H   0  0  0  0  0  0  0  0  0  0  0  0
   -1.5854    1.9496   -0.1886 C   0  0  0  0  0  0  0  0  0  0  0  0
   -0.6239    2.5941   -0.5762 O   0  0  0  0  0  0  0  0  0  0  0  0
   -2.9640    2.5354   -0.0014 C   0  0  1  0  0  0  0  0  0  0  0  0
   -3.6679    2.0404   -0.6667 H   0  0  0  0  0  0  0  0  0  0  0  0
   -3.2953    2.3903    1.0241 H   0  0  0  0  0  0  0  0  0  0  0  0
   -2.9403    3.5971   -0.2287 H   0  0  0  0  0  0  0  0  0  0  0  0
  1  9  1  0
  2 10  1  6
  2  1  1  0
  2  3  1  0
  2  5  1  0
  3  4  2  0
  5 12  1  1
  5 11  1  0
  6  5  1  0
  7  6  2  0
  8  6  1  0
 13  8  1  0
 14  8  1  0
 15  3  1  0
 15 17  1  0
 16 15  1  0
 17 19  1  1
 17 18  1  0
 20 17  1  0
 21 23  1  0
 21  1  1  0
 22 21  2  0
 23 25  1  1
 24 23  1  0
 26 23  1  0
M  END
$$$$
