-42.62748731
     RDKit          3D

 26 25  0  0  1  0  0  0  0  0999 V2000
   -0.3874    0.7488    0.4425 N   0  0  0  0  0  0  0  0  0  0  0  0
    0.3089   -0.3106   -0.2657 C   0  0  2  0  0  0  0  0  0  0  0  0
   -0.2430   -1.7055    0.1328 C   0  0  0  0  0  0  0  0  0  0  0  0
    0.4352   -2.5251    0.7188 O   0  0  0  0  0  0  0  0  0  0  0  0
    1.8071   -0.2590    0.0527 C   0  0  2  0  0  0  0  0  0  0  0  0
    2.3629    1.1353   -0.1474 C   0  0  0  0  0  0  0  0  0  0  0  0
    2.0217    2.0802    0.5378 O   0  0  0  0  0  0  0  0  0  0  0  0
    3.2512    1.2662   -1.1526 N   0  0  0  0  0  0  0  0  0  0  0  0
    0.1971    1.3133    1.0490 H   0  0  0  0  0  0  0  0  0  0  0  0
    0.1339   -0.1800   -1.3441 H   0  0  0  0  0  0  0  0  0  0  0  0
    2.3243   -0.9951   -0.5606 H   0  0  0  0  0  0  0  0  0  0  0  0
    1.9320   -0.5432    1.1003 H   0  0  0  0  0  0  0  0  0  0  0  0
    3.6579    2.1712   -1.3261 H   0  0  0  0  0  0  0  0  0  0  0  0
    3.5506    0.4883   -1.7121 H   0  0  0  0  0  0  0  0  0  0  0  0
   -1.5063   -1.8911   -0.2627 N   0  0  0  0  0  0  0  0  0  0  0  0
   -1.9988   -1.1086   -0.6916 H   0  0  0  0  0  0  0  0  0  0  0  0
   -2.2449   -3.0932    0.0347 C   0  0  1  0  0  0  0  0  0  0  0  0
   -3.0826   -2.8767    0.7003 H   0  0  0  0  0  0  0  0  0  0  0  0
   -2.6283   -3.5364   -0.8855 H   0  0  0  0  0  0  0  0  0  0  0  0
   -1.5677   -3.7933    0.5217 H   0  0  0  0  0  0  0  0  0  0  0  0
   -1.5646    1.2564    0.0308 C   0  0  0  0  0  0  0  0  0  0  0  0
   -2.2470    0.7246   -0.8326 O   0  0  0  0  0  0  0  0  0  0  0  0
   -1.9776    2.5112    0.7593 C   0  0  1  0  0  0  0  0  0  0  0  0
   -1.2057    3.2707    0.6589 H   0  0  0  0  0  0  0  0  0  0  0  0
   -2.9113    2.8804    0.3453 H   0  0  0  0  0  0  0  0  0  0  0  0
   -2.1138    2.2935    1.8163 H   0  0  0  0  0  0  0  0  0  0  0  0
  1  9  1  0
  2 10  1  6
  2  5  1  0
  2  3  1  0
  2  1  1  0
  3  4  2  0
  5 12  1  1
  6  5  1  0
  6  7  2  0
  8  6  1  0
 11  5  1  0
 13  8  1  0
 14  8  1  0
 15 17  1  0
 15  3  1  0
 16 15  1  0
 17 20  1  1
 17 18  1  0
 19 17  1  0
 21  1  1  0
 21 23  1  0
 22 21  2  0
 23 26  1  1
 24 23  1  0
 25 23  1  0
M  END
$$$$
