-42.62691032
     RDKit          3D

 26 25  0  0  1  0  0  0  0  0999 V2000
   -1.3101    0.5948   -0.1481 N   0  0  0  0  0  0  0  0  0  0  0  0
   -0.4260   -0.2995   -0.8789 C   0  0  2  0  0  0  0  0  0  0  0  0
   -0.5122   -1.6366   -0.1015 C   0  0  0  0  0  0  0  0  0  0  0  0
   -1.6136   -2.0019    0.2775 O   0  0  0  0  0  0  0  0  0  0  0  0
    0.9706    0.2547   -1.1773 C   0  0  2  0  0  0  0  0  0  0  0  0
    1.8207    0.5171    0.0578 C   0  0  0  0  0  0  0  0  0  0  0  0
    2.4853   -0.3637    0.5815 O   0  0  0  0  0  0  0  0  0  0  0  0
    1.8020    1.7816    0.4867 N   0  0  0  0  0  0  0  0  0  0  0  0
   -2.0463    0.0646    0.3088 H   0  0  0  0  0  0  0  0  0  0  0  0
   -0.8955   -0.5126   -1.8564 H   0  0  0  0  0  0  0  0  0  0  0  0
    0.8529    1.1817   -1.7378 H   0  0  0  0  0  0  0  0  0  0  0  0
    1.4914   -0.4728   -1.8033 H   0  0  0  0  0  0  0  0  0  0  0  0
    2.3197    2.0328    1.3129 H   0  0  0  0  0  0  0  0  0  0  0  0
    1.1588    2.4449    0.0697 H   0  0  0  0  0  0  0  0  0  0  0  0
    0.6136   -2.3375    0.0496 N   0  0  0  0  0  0  0  0  0  0  0  0
    1.5111   -1.8596   -0.0037 H   0  0  0  0  0  0  0  0  0  0  0  0
    0.6173   -3.5949    0.7634 C   0  0  1  0  0  0  0  0  0  0  0  0
   -0.4125   -3.9289    0.8782 H   0  0  0  0  0  0  0  0  0  0  0  0
    1.1828   -4.3335    0.1952 H   0  0  0  0  0  0  0  0  0  0  0  0
    1.0714   -3.4788    1.7488 H   0  0  0  0  0  0  0  0  0  0  0  0
   -1.3842    1.9350   -0.1401 C   0  0  0  0  0  0  0  0  0  0  0  0
   -0.5745    2.6791   -0.6710 O   0  0  0  0  0  0  0  0  0  0  0  0
   -2.5734    2.4549    0.6396 C   0  0  1  0  0  0  0  0  0  0  0  0
   -3.4978    2.1266    0.1697 H   0  0  0  0  0  0  0  0  0  0  0  0
   -2.5484    2.0776    1.6592 H   0  0  0  0  0  0  0  0  0  0  0  0
   -2.5458    3.5406    0.6541 H   0  0  0  0  0  0  0  0  0  0  0  0
  1 21  1  0
  1  9  1  0
  2 10  1  6
  2  1  1  0
  2  3  1  0
  3 15  1  0
  3  4  2  0
  5  2  1  0
  5  6  1  0
  6  8  1  0
  6  7  2  0
  8 13  1  0
  5 11  1  6
 12  5  1  0
 14  8  1  0
 15 17  1  0
 16 15  1  0
 17 18  1  1
 17 20  1  0
 19 17  1  0
 21 23  1  0
 22 21  2  0
 23 26  1  1
 23 25  1  0
 24 23  1  0
M  END
$$$$
