-42.62581780
     RDKit          3D

 26 25  0  0  1  0  0  0  0  0999 V2000
   -1.0993    0.5187   -0.0449 N   0  0  0  0  0  0  0  0  0  0  0  0
   -0.3271   -0.3738   -0.9017 C   0  0  2  0  0  0  0  0  0  0  0  0
   -0.5081   -1.7978   -0.3360 C   0  0  0  0  0  0  0  0  0  0  0  0
   -1.3981   -2.5117   -0.7591 O   0  0  0  0  0  0  0  0  0  0  0  0
    1.1362    0.0842   -1.0545 C   0  0  2  0  0  0  0  0  0  0  0  0
    1.6977    0.6988    0.2182 C   0  0  0  0  0  0  0  0  0  0  0  0
    1.9704    0.0365    1.2076 O   0  0  0  0  0  0  0  0  0  0  0  0
    1.9126    2.0198    0.1527 N   0  0  0  0  0  0  0  0  0  0  0  0
   -1.7338    0.0685    0.5968 H   0  0  0  0  0  0  0  0  0  0  0  0
   -0.7838   -0.3836   -1.9021 H   0  0  0  0  0  0  0  0  0  0  0  0
    1.1917    0.8185   -1.8566 H   0  0  0  0  0  0  0  0  0  0  0  0
    1.7442   -0.7818   -1.3230 H   0  0  0  0  0  0  0  0  0  0  0  0
    2.2277    2.4956    0.9839 H   0  0  0  0  0  0  0  0  0  0  0  0
    1.4611    2.5632   -0.5688 H   0  0  0  0  0  0  0  0  0  0  0  0
    0.3344   -2.1331    0.6450 N   0  0  0  0  0  0  0  0  0  0  0  0
    1.0332   -1.4661    0.9776 H   0  0  0  0  0  0  0  0  0  0  0  0
    0.2783   -3.4193    1.2956 C   0  0  1  0  0  0  0  0  0  0  0  0
   -0.5142   -4.0031    0.8295 H   0  0  0  0  0  0  0  0  0  0  0  0
    1.2297   -3.9413    1.1827 H   0  0  0  0  0  0  0  0  0  0  0  0
    0.0653   -3.2992    2.3592 H   0  0  0  0  0  0  0  0  0  0  0  0
   -1.2343    1.8465   -0.2553 C   0  0  0  0  0  0  0  0  0  0  0  0
   -0.5832    2.4595   -1.0796 O   0  0  0  0  0  0  0  0  0  0  0  0
   -2.2381    2.5041    0.6655 C   0  0  1  0  0  0  0  0  0  0  0  0
   -2.2467    3.5747    0.4829 H   0  0  0  0  0  0  0  0  0  0  0  0
   -3.2316    2.1025    0.4785 H   0  0  0  0  0  0  0  0  0  0  0  0
   -1.9746    2.3153    1.7038 H   0  0  0  0  0  0  0  0  0  0  0  0
  1  9  1  0
  2 10  1  6
  2  3  1  0
  2  1  1  0
  3 15  1  0
  4  3  2  0
  5  2  1  0
  5  6  1  0
  6  7  2  0
  8  6  1  0
  8 13  1  0
  5 11  1  6
 12  5  1  0
 14  8  1  0
 15 16  1  0
 15 17  1  0
 17 20  1  1
 18 17  1  0
 19 17  1  0
 21  1  1  0
 21 23  1  0
 22 21  2  0
 23 26  1  1
 24 23  1  0
 25 23  1  0
M  END
$$$$
