-42.62581306
     RDKit          3D

 26 25  0  0  1  0  0  0  0  0999 V2000
   -1.0922    0.5156   -0.0442 N   0  0  0  0  0  0  0  0  0  0  0  0
   -0.3234   -0.3771   -0.9037 C   0  0  2  0  0  0  0  0  0  0  0  0
   -0.5043   -1.8036   -0.3455 C   0  0  0  0  0  0  0  0  0  0  0  0
   -1.3651   -2.5333   -0.8000 O   0  0  0  0  0  0  0  0  0  0  0  0
    1.1425    0.0769   -1.0491 C   0  0  2  0  0  0  0  0  0  0  0  0
    1.6890    0.7048    0.2236 C   0  0  0  0  0  0  0  0  0  0  0  0
    1.9347    0.0559    1.2286 O   0  0  0  0  0  0  0  0  0  0  0  0
    1.9220    2.0221    0.1414 N   0  0  0  0  0  0  0  0  0  0  0  0
   -1.7180    0.0686    0.6079 H   0  0  0  0  0  0  0  0  0  0  0  0
   -0.7781   -0.3804   -1.9048 H   0  0  0  0  0  0  0  0  0  0  0  0
    1.2075    0.8020   -1.8587 H   0  0  0  0  0  0  0  0  0  0  0  0
    1.7528   -0.7925   -1.3010 H   0  0  0  0  0  0  0  0  0  0  0  0
    2.2265    2.5066    0.9715 H   0  0  0  0  0  0  0  0  0  0  0  0
    1.4888    2.5601   -0.5948 H   0  0  0  0  0  0  0  0  0  0  0  0
    0.3066   -2.1220    0.6676 N   0  0  0  0  0  0  0  0  0  0  0  0
    0.9916   -1.4467    1.0120 H   0  0  0  0  0  0  0  0  0  0  0  0
    0.2532   -3.4092    1.3162 C   0  0  1  0  0  0  0  0  0  0  0  0
   -0.5221   -4.0024    0.8333 H   0  0  0  0  0  0  0  0  0  0  0  0
    1.2127   -3.9203    1.2232 H   0  0  0  0  0  0  0  0  0  0  0  0
    0.0167   -3.2921    2.3750 H   0  0  0  0  0  0  0  0  0  0  0  0
   -1.2251    1.8431   -0.2586 C   0  0  0  0  0  0  0  0  0  0  0  0
   -0.5805    2.4493   -1.0927 O   0  0  0  0  0  0  0  0  0  0  0  0
   -2.2166    2.5084    0.6701 C   0  0  1  0  0  0  0  0  0  0  0  0
   -2.2233    3.5782    0.4826 H   0  0  0  0  0  0  0  0  0  0  0  0
   -3.2135    2.1096    0.4957 H   0  0  0  0  0  0  0  0  0  0  0  0
   -1.9423    2.3233    1.7063 H   0  0  0  0  0  0  0  0  0  0  0  0
  1  9  1  0
  2 10  1  6
  2  3  1  0
  2  1  1  0
  3 15  1  0
  4  3  2  0
  5  2  1  0
  5  6  1  0
  6  7  2  0
  8  6  1  0
  8 13  1  0
  5 11  1  6
 12  5  1  0
 14  8  1  0
 15 16  1  0
 15 17  1  0
 17 20  1  1
 18 17  1  0
 19 17  1  0
 21  1  1  0
 21 23  1  0
 22 21  2  0
 23 26  1  1
 24 23  1  0
 25 23  1  0
M  END
$$$$
