-42.62522257
     RDKit          3D

 26 25  0  0  1  0  0  0  0  0999 V2000
   -0.5813    0.7984   -0.8174 N   0  0  0  0  0  0  0  0  0  0  0  0
    0.3590   -0.3128   -0.7613 C   0  0  2  0  0  0  0  0  0  0  0  0
   -0.3093   -1.7047   -0.7458 C   0  0  0  0  0  0  0  0  0  0  0  0
    0.0211   -2.5582   -1.5455 O   0  0  0  0  0  0  0  0  0  0  0  0
    1.3138   -0.1814    0.4338 C   0  0  2  0  0  0  0  0  0  0  0  0
    2.1006    1.1195    0.3616 C   0  0  0  0  0  0  0  0  0  0  0  0
    1.9083    1.9846   -0.4636 O   0  0  0  0  0  0  0  0  0  0  0  0
    3.0450    1.2338    1.3213 N   0  0  0  0  0  0  0  0  0  0  0  0
   -0.4117    1.4442   -1.5728 H   0  0  0  0  0  0  0  0  0  0  0  0
    0.9476   -0.2692   -1.6821 H   0  0  0  0  0  0  0  0  0  0  0  0
    2.0012   -1.0285    0.4426 H   0  0  0  0  0  0  0  0  0  0  0  0
    0.7408   -0.1852    1.3637 H   0  0  0  0  0  0  0  0  0  0  0  0
    3.6022    2.0711    1.3597 H   0  0  0  0  0  0  0  0  0  0  0  0
    3.1911    0.5243    2.0161 H   0  0  0  0  0  0  0  0  0  0  0  0
   -1.2103   -1.8778    0.2269 N   0  0  0  0  0  0  0  0  0  0  0  0
   -1.4324   -1.0926    0.8376 H   0  0  0  0  0  0  0  0  0  0  0  0
   -1.9366   -3.1112    0.3974 C   0  0  1  0  0  0  0  0  0  0  0  0
   -1.5800   -3.8188   -0.3497 H   0  0  0  0  0  0  0  0  0  0  0  0
   -1.7639   -3.5175    1.3955 H   0  0  0  0  0  0  0  0  0  0  0  0
   -3.0073   -2.9482    0.2614 H   0  0  0  0  0  0  0  0  0  0  0  0
   -1.3124    1.2707    0.2108 C   0  0  0  0  0  0  0  0  0  0  0  0
   -1.4885    0.6611    1.2564 O   0  0  0  0  0  0  0  0  0  0  0  0
   -1.9328    2.6205   -0.0571 C   0  0  1  0  0  0  0  0  0  0  0  0
   -2.5851    2.8903    0.7684 H   0  0  0  0  0  0  0  0  0  0  0  0
   -1.1444    3.3648   -0.1510 H   0  0  0  0  0  0  0  0  0  0  0  0
   -2.5051    2.5984   -0.9814 H   0  0  0  0  0  0  0  0  0  0  0  0
  1  2  1  0
  1 21  1  0
  2 10  1  6
  2  3  1  0
  2  5  1  0
  3 15  1  0
  4  3  2  0
  5 11  1  1
  5 12  1  0
  6  5  1  0
  6  8  1  0
  7  6  2  0
  8 13  1  0
  8 14  1  0
  9  1  1  0
 15 17  1  0
 15 16  1  0
 17 19  1  1
 18 17  1  0
 20 17  1  0
 21 22  2  0
 23 21  1  0
 23 24  1  1
 25 23  1  0
 26 23  1  0
M  END
$$$$
