 energy: -61.560930191688 gnorm: 0.000045610554 xtb: 6.5.1 (9af7eec)
     RDKit          3D

 37 37  0  0  0  0  0  0  0  0999 V2000
   -7.9615    0.2807   -0.7692 O   0  0  0  0  0  0  0  0  0  0  0  0
   -6.9088    0.8426   -0.6625 C   0  0  0  0  0  0  0  0  0  0  0  0
   -6.7516    1.9883    0.0096 O   0  0  0  0  0  0  0  0  0  0  0  0
   -7.5943    2.2725    0.3985 H   0  0  0  0  0  0  0  0  0  0  0  0
   -5.5954    0.3705   -1.2591 C   0  0  2  0  0  0  0  0  0  0  0  0
   -4.9206    0.1045   -0.4375 H   0  0  0  0  0  0  0  0  0  0  0  0
   -5.1511    1.1922   -1.8292 H   0  0  0  0  0  0  0  0  0  0  0  0
   -5.7741   -0.7988   -2.0733 N   0  0  0  0  0  0  0  0  0  0  0  0
   -6.3441   -0.7325   -2.9132 H   0  0  0  0  0  0  0  0  0  0  0  0
   -5.3600   -2.0127   -1.6670 C   0  0  0  0  0  0  0  0  0  0  0  0
   -4.7125   -2.2135   -0.6617 O   0  0  0  0  0  0  0  0  0  0  0  0
   -5.7700   -3.1327   -2.6360 C   0  0  2  0  0  0  0  0  0  0  0  0
   -6.8543   -3.0785   -2.7774 H   0  0  0  0  0  0  0  0  0  0  0  0
   -5.5023   -4.0919   -2.1934 H   0  0  0  0  0  0  0  0  0  0  0  0
   -5.1304   -3.0141   -3.9272 N   0  0  0  0  0  0  0  0  0  0  0  0
   -4.2899   -3.5414   -4.1242 H   0  0  0  0  0  0  0  0  0  0  0  0
   -5.5157   -2.1506   -4.8759 C   0  0  0  0  0  0  0  0  0  0  0  0
   -6.4383   -1.3611   -4.7532 O   0  0  0  0  0  0  0  0  0  0  0  0
   -4.7173   -2.2830   -6.1713 C   0  0  1  0  0  0  0  0  0  0  0  0
   -3.3888   -2.8075   -5.8830 N   0  0  0  0  0  0  0  0  0  0  0  0
   -2.8097   -2.0913   -5.4570 H   0  0  0  0  0  0  0  0  0  0  0  0
   -2.9383   -3.0946   -6.7463 H   0  0  0  0  0  0  0  0  0  0  0  0
   -4.7058   -1.2942   -6.6586 H   0  0  0  0  0  0  0  0  0  0  0  0
   -5.4773   -3.2640   -7.0874 C   0  0  2  0  0  0  0  0  0  0  0  0
   -6.5124   -2.9265   -7.1606 H   0  0  0  0  0  0  0  0  0  0  0  0
   -5.4579   -4.2520   -6.6247 H   0  0  0  0  0  0  0  0  0  0  0  0
   -4.8473   -3.3102   -8.4497 C   0  0  0  0  0  0  0  0  0  0  0  0
   -5.0979   -2.3002   -9.3714 C   0  0  0  0  0  0  0  0  0  0  0  0
   -5.7825   -1.5048   -9.1133 H   0  0  0  0  0  0  0  0  0  0  0  0
   -4.4858   -2.3104  -10.6114 C   0  0  0  0  0  0  0  0  0  0  0  0
   -4.6926   -1.5216  -11.3198 H   0  0  0  0  0  0  0  0  0  0  0  0
   -3.6104   -3.3304  -10.9460 C   0  0  0  0  0  0  0  0  0  0  0  0
   -3.1323   -3.3388  -11.9142 H   0  0  0  0  0  0  0  0  0  0  0  0
   -3.3544   -4.3408  -10.0357 C   0  0  0  0  0  0  0  0  0  0  0  0
   -2.6754   -5.1410  -10.2915 H   0  0  0  0  0  0  0  0  0  0  0  0
   -3.9685   -4.3296   -8.7946 C   0  0  0  0  0  0  0  0  0  0  0  0
   -3.7704   -5.1248   -8.0896 H   0  0  0  0  0  0  0  0  0  0  0  0
  1  2  2  0
  2  3  1  0
  2  5  1  0
  3  4  1  0
  5  6  1  1
  5  8  1  0
  5  7  1  0
  8 10  1  0
  8  9  1  0
 10 11  2  0
 10 12  1  0
 12 15  1  0
 12 13  1  6
 12 14  1  0
 15 16  1  0
 15 17  1  0
 17 19  1  0
 17 18  2  0
 19 20  1  0
 19 23  1  6
 19 24  1  0
 20 22  1  0
 20 21  1  0
 24 26  1  1
 24 27  1  0
 24 25  1  0
 27 28  2  0
 27 36  1  0
 28 29  1  0
 28 30  1  0
 30 31  1  0
 30 32  2  0
 32 33  1  0
 32 34  1  0
 34 36  2  0
 34 35  1  0
 36 37  1  0
M  END
$$$$
