 energy: -61.563179322276 gnorm: 0.000011968197 xtb: 6.5.1 (9af7eec)
     RDKit          3D

 37 37  0  0  0  0  0  0  0  0999 V2000
   -8.7487   -2.9829   -1.1263 O   0  0  0  0  0  0  0  0  0  0  0  0
   -9.6516   -2.2206   -0.9061 C   0  0  0  0  0  0  0  0  0  0  0  0
  -10.7298   -2.5439   -0.1978 O   0  0  0  0  0  0  0  0  0  0  0  0
  -10.7197   -3.4795    0.0605 H   0  0  0  0  0  0  0  0  0  0  0  0
   -9.7358   -0.7861   -1.3984 C   0  0  2  0  0  0  0  0  0  0  0  0
  -10.2023   -0.1760   -0.6206 H   0  0  0  0  0  0  0  0  0  0  0  0
  -10.4138   -0.8191   -2.2594 H   0  0  0  0  0  0  0  0  0  0  0  0
   -8.4607   -0.2369   -1.7643 N   0  0  0  0  0  0  0  0  0  0  0  0
   -7.8539    0.0265   -0.9981 H   0  0  0  0  0  0  0  0  0  0  0  0
   -7.8499   -0.2011   -2.9712 C   0  0  0  0  0  0  0  0  0  0  0  0
   -6.7229    0.2302   -3.0838 O   0  0  0  0  0  0  0  0  0  0  0  0
   -8.6384   -0.7096   -4.1811 C   0  0  2  0  0  0  0  0  0  0  0  0
   -8.1257   -0.3427   -5.0749 H   0  0  0  0  0  0  0  0  0  0  0  0
   -9.6672   -0.3416   -4.1750 H   0  0  0  0  0  0  0  0  0  0  0  0
   -8.6777   -2.1506   -4.2096 N   0  0  0  0  0  0  0  0  0  0  0  0
   -7.8119   -2.6607   -4.3291 H   0  0  0  0  0  0  0  0  0  0  0  0
   -9.7672   -2.8837   -3.9419 C   0  0  0  0  0  0  0  0  0  0  0  0
  -10.8623   -2.4062   -3.6959 O   0  0  0  0  0  0  0  0  0  0  0  0
   -9.5034   -4.3900   -4.0161 C   0  0  1  0  0  0  0  0  0  0  0  0
   -8.0967   -4.6434   -3.7600 N   0  0  0  0  0  0  0  0  0  0  0  0
   -7.8948   -5.6307   -3.8786 H   0  0  0  0  0  0  0  0  0  0  0  0
   -7.8841   -4.3959   -2.7962 H   0  0  0  0  0  0  0  0  0  0  0  0
   -9.7151   -4.6958   -5.0502 H   0  0  0  0  0  0  0  0  0  0  0  0
  -10.4718   -5.1406   -3.0753 C   0  0  2  0  0  0  0  0  0  0  0  0
  -11.4699   -4.7241   -3.2192 H   0  0  0  0  0  0  0  0  0  0  0  0
  -10.1554   -4.9520   -2.0472 H   0  0  0  0  0  0  0  0  0  0  0  0
  -10.4541   -6.6108   -3.3632 C   0  0  0  0  0  0  0  0  0  0  0  0
  -11.2273   -7.1350   -4.3929 C   0  0  0  0  0  0  0  0  0  0  0  0
  -11.8764   -6.4778   -4.9540 H   0  0  0  0  0  0  0  0  0  0  0  0
  -11.1756   -8.4827   -4.6968 C   0  0  0  0  0  0  0  0  0  0  0  0
  -11.7854   -8.8776   -5.4963 H   0  0  0  0  0  0  0  0  0  0  0  0
  -10.3444   -9.3265   -3.9783 C   0  0  0  0  0  0  0  0  0  0  0  0
  -10.3036  -10.3792   -4.2157 H   0  0  0  0  0  0  0  0  0  0  0  0
   -9.5685   -8.8147   -2.9533 C   0  0  0  0  0  0  0  0  0  0  0  0
   -8.9186   -9.4670   -2.3881 H   0  0  0  0  0  0  0  0  0  0  0  0
   -9.6233   -7.4654   -2.6491 C   0  0  0  0  0  0  0  0  0  0  0  0
   -9.0180   -7.0736   -1.8426 H   0  0  0  0  0  0  0  0  0  0  0  0
  1  2  2  0
  2  3  1  0
  2  5  1  0
  3  4  1  0
  5  6  1  1
  5  8  1  0
  5  7  1  0
  8 10  1  0
  8  9  1  0
 10 11  2  0
 10 12  1  0
 12 15  1  0
 12 13  1  6
 12 14  1  0
 15 16  1  0
 15 17  1  0
 17 19  1  0
 17 18  2  0
 19 20  1  0
 19 23  1  6
 19 24  1  0
 20 22  1  0
 20 21  1  0
 24 26  1  1
 24 27  1  0
 24 25  1  0
 27 28  2  0
 27 36  1  0
 28 29  1  0
 28 30  1  0
 30 31  1  0
 30 32  2  0
 32 33  1  0
 32 34  1  0
 34 36  2  0
 34 35  1  0
 36 37  1  0
M  END
$$$$
