 energy: -61.560707254995 gnorm: 0.000040342971 xtb: 6.5.1 (9af7eec)
     RDKit          3D

 37 37  0  0  0  0  0  0  0  0999 V2000
   -8.2026    1.6479   -1.1174 O   0  0  0  0  0  0  0  0  0  0  0  0
   -7.1127    1.5609   -0.6227 C   0  0  0  0  0  0  0  0  0  0  0  0
   -6.6262    2.4564    0.2379 O   0  0  0  0  0  0  0  0  0  0  0  0
   -7.2672    3.1698    0.3844 H   0  0  0  0  0  0  0  0  0  0  0  0
   -6.1341    0.4339   -0.9011 C   0  0  2  0  0  0  0  0  0  0  0  0
   -5.7364    0.5781   -1.9134 H   0  0  0  0  0  0  0  0  0  0  0  0
   -6.6859   -0.5117   -0.8773 H   0  0  0  0  0  0  0  0  0  0  0  0
   -5.0163    0.4167    0.0004 N   0  0  0  0  0  0  0  0  0  0  0  0
   -5.1828    0.2666    0.9926 H   0  0  0  0  0  0  0  0  0  0  0  0
   -3.7681    0.7033   -0.4096 C   0  0  0  0  0  0  0  0  0  0  0  0
   -3.4584    0.9270   -1.5603 O   0  0  0  0  0  0  0  0  0  0  0  0
   -2.7526    0.7035    0.7443 C   0  0  2  0  0  0  0  0  0  0  0  0
   -3.1021    1.4117    1.5029 H   0  0  0  0  0  0  0  0  0  0  0  0
   -1.7858    1.0250    0.3572 H   0  0  0  0  0  0  0  0  0  0  0  0
   -2.6060   -0.5952    1.3620 N   0  0  0  0  0  0  0  0  0  0  0  0
   -1.8509   -1.2067    1.0805 H   0  0  0  0  0  0  0  0  0  0  0  0
   -3.4787   -1.1090    2.2381 C   0  0  0  0  0  0  0  0  0  0  0  0
   -4.5021   -0.5470    2.5963 O   0  0  0  0  0  0  0  0  0  0  0  0
   -3.0455   -2.4607    2.8005 C   0  0  1  0  0  0  0  0  0  0  0  0
   -2.1832   -3.1408    1.8431 N   0  0  0  0  0  0  0  0  0  0  0  0
   -2.7304   -3.5083    1.0715 H   0  0  0  0  0  0  0  0  0  0  0  0
   -1.7215   -3.9247    2.2934 H   0  0  0  0  0  0  0  0  0  0  0  0
   -3.9581   -3.0252    3.0529 H   0  0  0  0  0  0  0  0  0  0  0  0
   -2.2671   -2.1930    4.1051 C   0  0  2  0  0  0  0  0  0  0  0  0
   -2.8812   -1.5538    4.7414 H   0  0  0  0  0  0  0  0  0  0  0  0
   -1.3460   -1.6645    3.8541 H   0  0  0  0  0  0  0  0  0  0  0  0
   -1.9566   -3.4831    4.8082 C   0  0  0  0  0  0  0  0  0  0  0  0
   -2.9365   -4.1263    5.5556 C   0  0  0  0  0  0  0  0  0  0  0  0
   -3.9098   -3.6684    5.6599 H   0  0  0  0  0  0  0  0  0  0  0  0
   -2.6732   -5.3378    6.1681 C   0  0  0  0  0  0  0  0  0  0  0  0
   -3.4424   -5.8252    6.7491 H   0  0  0  0  0  0  0  0  0  0  0  0
   -1.4256   -5.9255    6.0384 C   0  0  0  0  0  0  0  0  0  0  0  0
   -1.2196   -6.8716    6.5164 H   0  0  0  0  0  0  0  0  0  0  0  0
   -0.4430   -5.2930    5.2970 C   0  0  0  0  0  0  0  0  0  0  0  0
    0.5331   -5.7442    5.1945 H   0  0  0  0  0  0  0  0  0  0  0  0
   -0.7080   -4.0796    4.6846 C   0  0  0  0  0  0  0  0  0  0  0  0
    0.0651   -3.5863    4.1121 H   0  0  0  0  0  0  0  0  0  0  0  0
  1  2  2  0
  2  3  1  0
  2  5  1  0
  3  4  1  0
  5  6  1  6
  5  8  1  0
  5  7  1  0
  8 10  1  0
  8  9  1  0
 10 11  2  0
 10 12  1  0
 12 15  1  0
 12 13  1  1
 12 14  1  0
 15 16  1  0
 15 17  1  0
 17 19  1  0
 17 18  2  0
 19 20  1  0
 19 23  1  1
 19 24  1  0
 20 22  1  0
 20 21  1  0
 24 26  1  6
 24 27  1  0
 24 25  1  0
 27 28  2  0
 27 36  1  0
 28 29  1  0
 28 30  1  0
 30 31  1  0
 30 32  2  0
 32 33  1  0
 32 34  1  0
 34 36  2  0
 34 35  1  0
 36 37  1  0
M  END
$$$$
