 energy: -61.558099321176 gnorm: 0.000042373029 xtb: 6.5.1 (9af7eec)
     RDKit          3D

 37 37  0  0  0  0  0  0  0  0999 V2000
   -7.2817    0.5787   -1.6106 O   0  0  0  0  0  0  0  0  0  0  0  0
   -6.4825    1.3596   -1.1710 C   0  0  0  0  0  0  0  0  0  0  0  0
   -6.6963    2.6718   -1.0941 O   0  0  0  0  0  0  0  0  0  0  0  0
   -7.5797    2.8987   -1.4272 H   0  0  0  0  0  0  0  0  0  0  0  0
   -5.1064    0.9798   -0.6633 C   0  0  2  0  0  0  0  0  0  0  0  0
   -4.9810    1.3236    0.3684 H   0  0  0  0  0  0  0  0  0  0  0  0
   -4.3555    1.4817   -1.2850 H   0  0  0  0  0  0  0  0  0  0  0  0
   -4.9323   -0.4495   -0.6795 N   0  0  0  0  0  0  0  0  0  0  0  0
   -5.3065   -0.9349   -1.4814 H   0  0  0  0  0  0  0  0  0  0  0  0
   -4.6608   -1.1409    0.4527 C   0  0  0  0  0  0  0  0  0  0  0  0
   -4.3752   -0.6094    1.5031 O   0  0  0  0  0  0  0  0  0  0  0  0
   -4.7225   -2.6562    0.2797 C   0  0  2  0  0  0  0  0  0  0  0  0
   -4.1092   -2.9718   -0.5701 H   0  0  0  0  0  0  0  0  0  0  0  0
   -5.7645   -2.9473    0.0980 H   0  0  0  0  0  0  0  0  0  0  0  0
   -4.2111   -3.3190    1.4472 N   0  0  0  0  0  0  0  0  0  0  0  0
   -4.4768   -2.9503    2.3534 H   0  0  0  0  0  0  0  0  0  0  0  0
   -3.0777   -4.0477    1.4138 C   0  0  0  0  0  0  0  0  0  0  0  0
   -2.5233   -4.3956    0.3908 O   0  0  0  0  0  0  0  0  0  0  0  0
   -2.6035   -4.4744    2.8029 C   0  0  1  0  0  0  0  0  0  0  0  0
   -3.0266   -3.4950    3.7927 N   0  0  0  0  0  0  0  0  0  0  0  0
   -2.5398   -2.6155    3.6543 H   0  0  0  0  0  0  0  0  0  0  0  0
   -2.8099   -3.8297    4.7259 H   0  0  0  0  0  0  0  0  0  0  0  0
   -1.5096   -4.6088    2.7500 H   0  0  0  0  0  0  0  0  0  0  0  0
   -3.2440   -5.8412    3.1211 C   0  0  2  0  0  0  0  0  0  0  0  0
   -3.0379   -6.5140    2.2871 H   0  0  0  0  0  0  0  0  0  0  0  0
   -4.3223   -5.7001    3.2073 H   0  0  0  0  0  0  0  0  0  0  0  0
   -2.6851   -6.4035    4.3955 C   0  0  0  0  0  0  0  0  0  0  0  0
   -3.3637   -6.2531    5.5985 C   0  0  0  0  0  0  0  0  0  0  0  0
   -4.3262   -5.7613    5.6085 H   0  0  0  0  0  0  0  0  0  0  0  0
   -2.8212   -6.7320    6.7788 C   0  0  0  0  0  0  0  0  0  0  0  0
   -3.3608   -6.6093    7.7068 H   0  0  0  0  0  0  0  0  0  0  0  0
   -1.5913   -7.3664    6.7707 C   0  0  0  0  0  0  0  0  0  0  0  0
   -1.1677   -7.7410    7.6909 H   0  0  0  0  0  0  0  0  0  0  0  0
   -0.9073   -7.5217    5.5763 C   0  0  0  0  0  0  0  0  0  0  0  0
    0.0517   -8.0190    5.5636 H   0  0  0  0  0  0  0  0  0  0  0  0
   -1.4501   -7.0418    4.3982 C   0  0  0  0  0  0  0  0  0  0  0  0
   -0.9152   -7.1650    3.4673 H   0  0  0  0  0  0  0  0  0  0  0  0
  1  2  2  0
  2  3  1  0
  2  5  1  0
  3  4  1  0
  5  6  1  1
  5  8  1  0
  5  7  1  0
  8 10  1  0
  8  9  1  0
 10 11  2  0
 10 12  1  0
 12 15  1  0
 12 13  1  6
 12 14  1  0
 15 16  1  0
 15 17  1  0
 17 19  1  0
 17 18  2  0
 19 20  1  0
 19 23  1  6
 19 24  1  0
 20 22  1  0
 20 21  1  0
 24 26  1  1
 24 27  1  0
 24 25  1  0
 27 28  2  0
 27 36  1  0
 28 29  1  0
 28 30  1  0
 30 31  1  0
 30 32  2  0
 32 33  1  0
 32 34  1  0
 34 36  2  0
 34 35  1  0
 36 37  1  0
M  END
$$$$
