 energy: -61.562663717938 gnorm: 0.000016083795 xtb: 6.5.1 (9af7eec)
     RDKit          3D

 37 37  0  0  0  0  0  0  0  0999 V2000
   -7.8336   -3.8446   -5.6523 O   0  0  0  0  0  0  0  0  0  0  0  0
   -8.4570   -3.2799   -4.7967 C   0  0  0  0  0  0  0  0  0  0  0  0
   -9.6305   -3.7256   -4.3372 O   0  0  0  0  0  0  0  0  0  0  0  0
   -9.8688   -4.5538   -4.7827 H   0  0  0  0  0  0  0  0  0  0  0  0
   -8.0122   -2.0008   -4.1110 C   0  0  2  0  0  0  0  0  0  0  0  0
   -7.6077   -1.3238   -4.8690 H   0  0  0  0  0  0  0  0  0  0  0  0
   -7.2080   -2.2635   -3.4124 H   0  0  0  0  0  0  0  0  0  0  0  0
   -9.0538   -1.3679   -3.3503 N   0  0  0  0  0  0  0  0  0  0  0  0
   -9.8891   -1.0522   -3.8395 H   0  0  0  0  0  0  0  0  0  0  0  0
   -9.1116   -1.4825   -2.0093 C   0  0  0  0  0  0  0  0  0  0  0  0
   -8.2364   -1.9633   -1.3228 O   0  0  0  0  0  0  0  0  0  0  0  0
  -10.4123   -0.9057   -1.4289 C   0  0  2  0  0  0  0  0  0  0  0  0
  -10.5609    0.1022   -1.8278 H   0  0  0  0  0  0  0  0  0  0  0  0
  -10.3303   -0.8670   -0.3429 H   0  0  0  0  0  0  0  0  0  0  0  0
  -11.5576   -1.7132   -1.7880 N   0  0  0  0  0  0  0  0  0  0  0  0
  -11.8643   -2.4500   -1.1677 H   0  0  0  0  0  0  0  0  0  0  0  0
  -12.1478   -1.6624   -2.9878 C   0  0  0  0  0  0  0  0  0  0  0  0
  -11.7813   -0.9260   -3.8924 O   0  0  0  0  0  0  0  0  0  0  0  0
  -13.3289   -2.6209   -3.1494 C   0  0  1  0  0  0  0  0  0  0  0  0
  -13.6680   -3.2298   -1.8742 N   0  0  0  0  0  0  0  0  0  0  0  0
  -14.2750   -4.0293   -2.0168 H   0  0  0  0  0  0  0  0  0  0  0  0
  -14.1786   -2.5610   -1.3028 H   0  0  0  0  0  0  0  0  0  0  0  0
  -12.9745   -3.4161   -3.8175 H   0  0  0  0  0  0  0  0  0  0  0  0
  -14.4987   -1.8842   -3.8495 C   0  0  2  0  0  0  0  0  0  0  0  0
  -15.2493   -2.6179   -4.1521 H   0  0  0  0  0  0  0  0  0  0  0  0
  -14.0970   -1.3993   -4.7395 H   0  0  0  0  0  0  0  0  0  0  0  0
  -15.1090   -0.8660   -2.9300 C   0  0  0  0  0  0  0  0  0  0  0  0
  -16.1917   -1.2002   -2.1243 C   0  0  0  0  0  0  0  0  0  0  0  0
  -16.6357   -2.1839   -2.2027 H   0  0  0  0  0  0  0  0  0  0  0  0
  -16.7210   -0.2812   -1.2343 C   0  0  0  0  0  0  0  0  0  0  0  0
  -17.5646   -0.5552   -0.6176 H   0  0  0  0  0  0  0  0  0  0  0  0
  -16.1709    0.9847   -1.1374 C   0  0  0  0  0  0  0  0  0  0  0  0
  -16.5828    1.7027   -0.4439 H   0  0  0  0  0  0  0  0  0  0  0  0
  -15.0945    1.3283   -1.9386 C   0  0  0  0  0  0  0  0  0  0  0  0
  -14.6662    2.3176   -1.8717 H   0  0  0  0  0  0  0  0  0  0  0  0
  -14.5667    0.4099   -2.8278 C   0  0  0  0  0  0  0  0  0  0  0  0
  -13.7285    0.6794   -3.4525 H   0  0  0  0  0  0  0  0  0  0  0  0
  1  2  2  0
  2  3  1  0
  2  5  1  0
  3  4  1  0
  5  6  1  6
  5  8  1  0
  5  7  1  0
  8 10  1  0
  8  9  1  0
 10 11  2  0
 10 12  1  0
 12 15  1  0
 12 13  1  6
 12 14  1  0
 15 16  1  0
 15 17  1  0
 17 19  1  0
 17 18  2  0
 19 20  1  0
 19 23  1  6
 19 24  1  0
 20 22  1  0
 20 21  1  0
 24 26  1  6
 24 27  1  0
 24 25  1  0
 27 28  2  0
 27 36  1  0
 28 29  1  0
 28 30  1  0
 30 31  1  0
 30 32  2  0
 32 33  1  0
 32 34  1  0
 34 36  2  0
 34 35  1  0
 36 37  1  0
M  END
$$$$
