relax
     RDKit          3D

 27 28  0  0  1  0  0  0  0  0999 V2000
   -0.0523   -0.2903    0.0695 C   0  0  0  0  0  0  0  0  0  0  0  0
    1.3363   -0.4756    0.0792 C   0  0  0  0  0  0  0  0  0  0  0  0
   -0.7301   -0.0135   -1.1005 C   0  0  0  0  0  0  0  0  0  0  0  0
    2.0758   -0.3860   -1.0816 C   0  0  0  0  0  0  0  0  0  0  0  0
    1.4190   -0.1033   -2.2818 C   0  0  0  0  0  0  0  0  0  0  0  0
    0.0182    0.0768   -2.2674 C   0  0  0  0  0  0  0  0  0  0  0  0
   -0.3708    0.3365   -3.5531 N   0  0  0  0  0  0  0  0  0  0  0  0
    0.7316    0.3217   -4.3680 C   0  0  0  0  0  0  0  0  0  0  0  0
    1.8542    0.0588   -3.6378 C   0  0  0  0  0  0  0  0  0  0  0  0
    3.2525   -0.0042   -4.1365 C   0  0  1  0  0  0  0  0  0  0  0  0
    4.1102    1.1573   -3.6262 C   0  0  2  0  0  0  0  0  0  0  0  0
    3.6443    2.4837   -4.0123 N   0  0  0  0  0  0  0  0  0  0  0  0
    5.5716    0.9794   -4.0518 C   0  0  0  0  0  0  0  0  0  0  0  0
    6.1532    2.1131   -4.4293 O   0  0  0  0  0  0  0  0  0  0  0  0
    6.1400   -0.0754   -4.0255 O   0  0  0  0  0  0  0  0  0  0  0  0
    3.7413   -0.9339   -3.8392 H   0  0  0  0  0  0  0  0  0  0  0  0
    3.2589    0.0118   -5.2311 H   0  0  0  0  0  0  0  0  0  0  0  0
    4.1293    1.1200   -2.5327 H   0  0  0  0  0  0  0  0  0  0  0  0
    0.6343    0.4919   -5.4282 H   0  0  0  0  0  0  0  0  0  0  0  0
   -1.3159    0.4672   -3.8579 H   0  0  0  0  0  0  0  0  0  0  0  0
    3.1485   -0.5375   -1.0603 H   0  0  0  0  0  0  0  0  0  0  0  0
   -1.8043    0.1235   -1.1067 H   0  0  0  0  0  0  0  0  0  0  0  0
    1.8333   -0.6933    1.0158 H   0  0  0  0  0  0  0  0  0  0  0  0
    3.0050    2.8602   -3.3280 H   0  0  0  0  0  0  0  0  0  0  0  0
    3.1461    2.4471   -4.8925 H   0  0  0  0  0  0  0  0  0  0  0  0
   -0.6045   -0.3684    0.9970 H   0  0  0  0  0  0  0  0  0  0  0  0
    5.4397    2.7847   -4.3609 H   0  0  0  0  0  0  0  0  0  0  0  0
  1  2  1  0
  1 26  1  0
  2 23  1  0
  3  1  2  0
  4 21  1  0
  4  2  2  0
  5  6  2  0
  5  4  1  0
  6  3  1  0
  7  6  1  0
  8  9  2  0
  8  7  1  0
  9  5  1  0
 10 16  1  6
 10  9  1  0
 10 11  1  0
 11 18  1  1
 12 11  1  0
 12 24  1  0
 13 15  2  0
 13 11  1  0
 14 27  1  0
 14 13  1  0
 17 10  1  0
 19  8  1  0
 20  7  1  0
 22  3  1  0
 25 12  1  0
M  END
$$$$
