relax
     RDKit          3D

 27 28  0  0  1  0  0  0  0  0999 V2000
    0.0684   -0.0247    0.0250 C   0  0  0  0  0  0  0  0  0  0  0  0
    1.4686   -0.0758    0.0077 C   0  0  0  0  0  0  0  0  0  0  0  0
   -0.6612    0.0185   -1.1458 C   0  0  0  0  0  0  0  0  0  0  0  0
    2.1663   -0.0810   -1.1819 C   0  0  0  0  0  0  0  0  0  0  0  0
    1.4563   -0.0317   -2.3851 C   0  0  0  0  0  0  0  0  0  0  0  0
    0.0444    0.0137   -2.3426 C   0  0  0  0  0  0  0  0  0  0  0  0
   -0.3953    0.0462   -3.6362 N   0  0  0  0  0  0  0  0  0  0  0  0
    0.6788    0.0265   -4.4845 C   0  0  0  0  0  0  0  0  0  0  0  0
    1.8397   -0.0239   -3.7657 C   0  0  0  0  0  0  0  0  0  0  0  0
    3.2274   -0.0023   -4.3091 C   0  0  1  0  0  0  0  0  0  0  0  0
    3.7243    1.4225   -4.5728 C   0  0  2  0  0  0  0  0  0  0  0  0
    3.6526    2.3301   -3.4344 N   0  0  0  0  0  0  0  0  0  0  0  0
    2.9623    2.0378   -5.7553 C   0  0  0  0  0  0  0  0  0  0  0  0
    2.6629    3.3169   -5.5804 O   0  0  0  0  0  0  0  0  0  0  0  0
    2.6887    1.4257   -6.7496 O   0  0  0  0  0  0  0  0  0  0  0  0
    3.9103   -0.4878   -3.6079 H   0  0  0  0  0  0  0  0  0  0  0  0
    3.2796   -0.5509   -5.2494 H   0  0  0  0  0  0  0  0  0  0  0  0
    4.7655    1.3749   -4.9063 H   0  0  0  0  0  0  0  0  0  0  0  0
    0.5456    0.0593   -5.5537 H   0  0  0  0  0  0  0  0  0  0  0  0
   -1.3540    0.0859   -3.9239 H   0  0  0  0  0  0  0  0  0  0  0  0
    3.2490   -0.1293   -1.1821 H   0  0  0  0  0  0  0  0  0  0  0  0
   -1.7433    0.0540   -1.1289 H   0  0  0  0  0  0  0  0  0  0  0  0
    2.0070   -0.1161    0.9458 H   0  0  0  0  0  0  0  0  0  0  0  0
    4.5031    2.3299   -2.8930 H   0  0  0  0  0  0  0  0  0  0  0  0
    2.8892    2.0724   -2.8197 H   0  0  0  0  0  0  0  0  0  0  0  0
   -0.4505   -0.0215    0.9746 H   0  0  0  0  0  0  0  0  0  0  0  0
    2.9845    3.5150   -4.6718 H   0  0  0  0  0  0  0  0  0  0  0  0
  1 26  1  0
  2  1  1  0
  2 23  1  0
  3 22  1  0
  3  1  2  0
  4  2  2  0
  5  6  2  0
  5  4  1  0
  6  3  1  0
  7  6  1  0
  8  9  2  0
  8  7  1  0
  9  5  1  0
 10  9  1  0
 10 16  1  1
 11 18  1  6
 11 10  1  0
 11 12  1  0
 12 24  1  0
 12 25  1  0
 13 14  1  0
 13 11  1  0
 14 27  1  0
 15 13  2  0
 17 10  1  0
 19  8  1  0
 20  7  1  0
 21  4  1  0
M  END
$$$$
