relax
     RDKit          3D

 27 28  0  0  1  0  0  0  0  0999 V2000
    0.0663   -0.0455    0.0377 C   0  0  0  0  0  0  0  0  0  0  0  0
    1.4670   -0.0312   -0.0049 C   0  0  0  0  0  0  0  0  0  0  0  0
   -0.6854   -0.0388   -1.1193 C   0  0  0  0  0  0  0  0  0  0  0  0
    2.1449   -0.0084   -1.2054 C   0  0  0  0  0  0  0  0  0  0  0  0
    1.4108   -0.0009   -2.3948 C   0  0  0  0  0  0  0  0  0  0  0  0
    0.0004   -0.0177   -2.3277 C   0  0  0  0  0  0  0  0  0  0  0  0
   -0.4660   -0.0165   -3.6130 N   0  0  0  0  0  0  0  0  0  0  0  0
    0.5950   -0.0033   -4.4792 C   0  0  0  0  0  0  0  0  0  0  0  0
    1.7696    0.0086   -3.7833 C   0  0  0  0  0  0  0  0  0  0  0  0
    3.1430    0.0425   -4.3622 C   0  0  1  0  0  0  0  0  0  0  0  0
    3.7277    1.4579   -4.4862 C   0  0  2  0  0  0  0  0  0  0  0  0
    3.9167    2.0560   -3.1905 N   0  0  0  0  0  0  0  0  0  0  0  0
    2.8862    2.3080   -5.4265 C   0  0  0  0  0  0  0  0  0  0  0  0
    2.7558    1.7444   -6.6429 O   0  0  0  0  0  0  0  0  0  0  0  0
    2.4063    3.3731   -5.1589 O   0  0  0  0  0  0  0  0  0  0  0  0
    3.8282   -0.5283   -3.7326 H   0  0  0  0  0  0  0  0  0  0  0  0
    3.1419   -0.4206   -5.3488 H   0  0  0  0  0  0  0  0  0  0  0  0
    4.7047    1.3605   -4.9731 H   0  0  0  0  0  0  0  0  0  0  0  0
    0.4361   -0.0103   -5.5455 H   0  0  0  0  0  0  0  0  0  0  0  0
   -1.4309   -0.0288   -3.8807 H   0  0  0  0  0  0  0  0  0  0  0  0
    3.2270    0.0177   -1.2302 H   0  0  0  0  0  0  0  0  0  0  0  0
   -1.7677   -0.0508   -1.0842 H   0  0  0  0  0  0  0  0  0  0  0  0
    2.0231   -0.0356    0.9237 H   0  0  0  0  0  0  0  0  0  0  0  0
    3.0277    2.1144   -2.7087 H   0  0  0  0  0  0  0  0  0  0  0  0
    4.2437    3.0075   -3.2899 H   0  0  0  0  0  0  0  0  0  0  0  0
   -0.4353   -0.0617    0.9967 H   0  0  0  0  0  0  0  0  0  0  0  0
    2.2435    2.3623   -7.1777 H   0  0  0  0  0  0  0  0  0  0  0  0
  1 26  1  0
  2  1  1  0
  2 23  1  0
  3 22  1  0
  3  1  2  0
  4  2  2  0
  5  6  2  0
  5  4  1  0
  6  3  1  0
  7  6  1  0
  8  9  2  0
  8  7  1  0
  9  5  1  0
 10  9  1  0
 10 16  1  1
 11 18  1  6
 11 10  1  0
 11 12  1  0
 12 24  1  0
 13 15  2  0
 13 11  1  0
 14 13  1  0
 17 10  1  0
 19  8  1  0
 20  7  1  0
 21  4  1  0
 25 12  1  0
 27 14  1  0
M  END
$$$$
