Coordinates from ORCA-job xai
     RDKit          3D

 22 21  0  0  0  0  0  0  0  0999 V2000
   -1.0350   -0.9280   -0.2090 N   0  0  0  0  0  0  0  0  0  0  0  0
   -1.0140   -1.6390   -0.9230 H   0  0  0  0  0  0  0  0  0  0  0  0
    0.2430   -0.5950    0.3900 C   0  0  1  0  0  0  0  0  0  0  0  0
    0.0280   -0.0020    1.2730 H   0  0  0  0  0  0  0  0  0  0  0  0
    0.9880   -1.8660    0.7660 C   0  0  1  0  0  0  0  0  0  0  0  0
    1.0790    0.1860   -0.6240 C   0  0  0  0  0  0  0  0  0  0  0  0
    1.9370   -1.6240    1.2410 H   0  0  0  0  0  0  0  0  0  0  0  0
    0.3910   -2.4610    1.4540 H   0  0  0  0  0  0  0  0  0  0  0  0
    1.1980   -2.4490   -0.1300 H   0  0  0  0  0  0  0  0  0  0  0  0
    1.2600   -0.2770   -1.7460 O   0  0  0  0  0  0  0  0  0  0  0  0
   -1.9720    0.0580   -0.3460 C   0  0  0  0  0  0  0  0  0  0  0  0
   -3.1420   -0.2830   -1.2320 C   0  0  2  0  0  0  0  0  0  0  0  0
   -4.0440    0.1440   -0.8040 H   0  0  0  0  0  0  0  0  0  0  0  0
   -3.2670   -1.3550   -1.3640 H   0  0  0  0  0  0  0  0  0  0  0  0
   -2.9810    0.1750   -2.2070 H   0  0  0  0  0  0  0  0  0  0  0  0
   -1.8690    1.1400    0.2220 O   0  0  0  0  0  0  0  0  0  0  0  0
    1.6290    1.3530   -0.2130 N   0  0  0  0  0  0  0  0  0  0  0  0
    2.1580    1.8230   -0.9310 H   0  0  0  0  0  0  0  0  0  0  0  0
    1.2970    2.0850    0.9980 C   0  0  1  0  0  0  0  0  0  0  0  0
    1.7380    3.0740    0.9240 H   0  0  0  0  0  0  0  0  0  0  0  0
    0.2200    2.1920    1.1050 H   0  0  0  0  0  0  0  0  0  0  0  0
    1.7080    1.6040    1.8850 H   0  0  0  0  0  0  0  0  0  0  0  0
  1  2  1  0
  1 11  1  0
  1  3  1  0
  3  6  1  0
  3  5  1  0
  3  4  1  1
  5  9  1  6
  5  7  1  0
  5  8  1  0
  6 10  1  0
  6 17  1  0
 11 12  1  0
 11 16  1  0
 12 15  1  6
 12 14  1  0
 12 13  1  0
 17 18  1  0
 17 19  1  0
 19 20  1  6
 19 21  1  0
 19 22  1  0
M  END
$$$$
