Coordinates from ORCA-job xab
     RDKit          3D

 22 21  0  0  0  0  0  0  0  0999 V2000
    1.4070   -1.2660   -1.9370 N   0  0  0  0  0  0  0  0  0  0  0  0
    1.8500   -0.4680   -1.5090 H   0  0  0  0  0  0  0  0  0  0  0  0
   -0.0340   -1.3930   -1.7400 C   0  0  1  0  0  0  0  0  0  0  0  0
   -0.5690   -1.0180   -2.6130 H   0  0  0  0  0  0  0  0  0  0  0  0
   -0.4410   -2.8430   -1.4890 C   0  0  1  0  0  0  0  0  0  0  0  0
   -0.4800   -0.5520   -0.5550 C   0  0  0  0  0  0  0  0  0  0  0  0
   -1.5160   -2.8920   -1.3230 H   0  0  0  0  0  0  0  0  0  0  0  0
   -0.1810   -3.4520   -2.3490 H   0  0  0  0  0  0  0  0  0  0  0  0
    0.0700   -3.2330   -0.6090 H   0  0  0  0  0  0  0  0  0  0  0  0
   -1.5670    0.0060   -0.5290 O   0  0  0  0  0  0  0  0  0  0  0  0
    1.9920   -1.7310   -3.0890 C   0  0  0  0  0  0  0  0  0  0  0  0
    3.4290   -1.3070   -3.2870 C   0  0  2  0  0  0  0  0  0  0  0  0
    3.8770   -0.8880   -2.3890 H   0  0  0  0  0  0  0  0  0  0  0  0
    3.4650   -0.5650   -4.0830 H   0  0  0  0  0  0  0  0  0  0  0  0
    4.0030   -2.1700   -3.6120 H   0  0  0  0  0  0  0  0  0  0  0  0
    1.4020   -2.4380   -3.8900 O   0  0  0  0  0  0  0  0  0  0  0  0
    0.4090   -0.4910    0.4800 N   0  0  0  0  0  0  0  0  0  0  0  0
    1.1560   -1.1650    0.4870 H   0  0  0  0  0  0  0  0  0  0  0  0
    0.0070    0.1170    1.7340 C   0  0  1  0  0  0  0  0  0  0  0  0
    0.8880    0.2850    2.3460 H   0  0  0  0  0  0  0  0  0  0  0  0
   -0.4720    1.0670    1.5230 H   0  0  0  0  0  0  0  0  0  0  0  0
   -0.7020   -0.5050    2.2810 H   0  0  0  0  0  0  0  0  0  0  0  0
  1 11  1  0
  1  3  1  0
  1  2  1  0
  3  4  1  6
  3  5  1  0
  3  6  1  0
  5  8  1  6
  5  7  1  0
  5  9  1  0
  6 10  1  0
  6 17  1  0
 11 16  1  0
 11 12  1  0
 12 14  1  6
 12 15  1  0
 12 13  1  0
 17 18  1  0
 17 19  1  0
 19 21  1  6
 19 22  1  0
 19 20  1  0
M  END
$$$$
