 energy: -47.856230678984 gnorm: 0.000047818602 xtb: 6.5.1 (9af7eec)
     RDKit          3D

 32 32  0  0  0  0  0  0  0  0999 V2000
   -2.1666   -1.9434   -0.5313 N   0  0  0  0  0  0  0  0  0  0  0  0
   -0.8169   -1.9398   -0.0287 C   0  0  2  0  0  0  0  0  0  0  0  0
   -0.2473   -0.5376   -0.2402 C   0  0  0  0  0  0  0  0  0  0  0  0
   -0.7188    0.2213   -1.0647 O   0  0  0  0  0  0  0  0  0  0  0  0
    0.0500   -2.9778   -0.7851 C   0  0  2  0  0  0  0  0  0  0  0  0
    1.4261   -3.0803   -0.2001 C   0  0  0  0  0  0  0  0  0  0  0  0
    2.5170   -2.4850   -0.8217 C   0  0  0  0  0  0  0  0  0  0  0  0
    1.6205   -3.7471    1.0056 C   0  0  0  0  0  0  0  0  0  0  0  0
    3.7760   -2.5522   -0.2501 C   0  0  0  0  0  0  0  0  0  0  0  0
    2.8782   -3.8137    1.5779 C   0  0  0  0  0  0  0  0  0  0  0  0
    3.9589   -3.2139    0.9523 C   0  0  0  0  0  0  0  0  0  0  0  0
   -2.3734   -1.2088   -1.1955 H   0  0  0  0  0  0  0  0  0  0  0  0
   -0.8404   -2.2032    1.0352 H   0  0  0  0  0  0  0  0  0  0  0  0
    0.0980   -2.6904   -1.8371 H   0  0  0  0  0  0  0  0  0  0  0  0
   -0.4642   -3.9376   -0.7054 H   0  0  0  0  0  0  0  0  0  0  0  0
    2.3780   -1.9666   -1.7597 H   0  0  0  0  0  0  0  0  0  0  0  0
    0.7785   -4.2205    1.4896 H   0  0  0  0  0  0  0  0  0  0  0  0
    4.6168   -2.0887   -0.7453 H   0  0  0  0  0  0  0  0  0  0  0  0
    3.0169   -4.3377    2.5121 H   0  0  0  0  0  0  0  0  0  0  0  0
    4.9411   -3.2672    1.3978 H   0  0  0  0  0  0  0  0  0  0  0  0
    0.7995   -0.2365    0.5472 N   0  0  0  0  0  0  0  0  0  0  0  0
    1.1626   -0.9374    1.1741 H   0  0  0  0  0  0  0  0  0  0  0  0
    1.5438    0.9930    0.4170 C   0  0  1  0  0  0  0  0  0  0  0  0
    2.5675    0.7908    0.0966 H   0  0  0  0  0  0  0  0  0  0  0  0
    1.0420    1.6027   -0.3323 H   0  0  0  0  0  0  0  0  0  0  0  0
    1.5642    1.5286    1.3670 H   0  0  0  0  0  0  0  0  0  0  0  0
   -3.1144   -2.7880   -0.0701 C   0  0  0  0  0  0  0  0  0  0  0  0
   -2.8759   -3.6371    0.7638 O   0  0  0  0  0  0  0  0  0  0  0  0
   -4.4753   -2.5740   -0.6965 C   0  0  2  0  0  0  0  0  0  0  0  0
   -4.8238   -1.5645   -0.4910 H   0  0  0  0  0  0  0  0  0  0  0  0
   -5.1786   -3.2901   -0.2820 H   0  0  0  0  0  0  0  0  0  0  0  0
   -4.4144   -2.7096   -1.7737 H   0  0  0  0  0  0  0  0  0  0  0  0
  1 12  1  0
  1 27  1  0
  1  2  1  0
  2  5  1  0
  2  3  1  0
  2 13  1  1
  3  4  1  0
  3 21  1  0
  5 14  1  6
  5 15  1  0
  5  6  1  0
  6  8  1  0
  6  7  1  0
  7 16  1  0
  7  9  1  0
  8 17  1  0
  8 10  1  0
  9 11  1  0
  9 18  1  0
 10 19  1  0
 10 11  1  0
 11 20  1  0
 21 23  1  0
 21 22  1  0
 23 25  1  6
 23 26  1  0
 23 24  1  0
 27 29  1  0
 27 28  1  0
 29 30  1  6
 29 31  1  0
 29 32  1  0
M  END
$$$$
