-19.99115414
     RDKit          3D

 20 19  0  0  0  0  0  0  0  0999 V2000
    2.3591    0.5040    0.4655 C   0  0  2  0  0  0  0  0  0  0  0  0
    1.4119   -0.6849    0.3546 C   0  0  2  0  0  0  0  0  0  0  0  0
    0.4745   -0.5994   -0.8509 C   0  0  2  0  0  0  0  0  0  0  0  0
   -0.4744    0.6013   -0.8494 C   0  0  2  0  0  0  0  0  0  0  0  0
   -1.4118    0.6840    0.3562 C   0  0  2  0  0  0  0  0  0  0  0  0
   -2.3592   -0.5050    0.4643 C   0  0  2  0  0  0  0  0  0  0  0  0
    3.0691    0.3466    1.2747 H   0  0  0  0  0  0  0  0  0  0  0  0
    1.8132    1.4215    0.6694 H   0  0  0  0  0  0  0  0  0  0  0  0
    2.9173    0.6332   -0.4595 H   0  0  0  0  0  0  0  0  0  0  0  0
    0.8284   -0.7717    1.2726 H   0  0  0  0  0  0  0  0  0  0  0  0
    2.0034   -1.5992    0.2592 H   0  0  0  0  0  0  0  0  0  0  0  0
   -0.1112   -1.5193   -0.9036 H   0  0  0  0  0  0  0  0  0  0  0  0
    1.0804   -0.5496   -1.7597 H   0  0  0  0  0  0  0  0  0  0  0  0
   -1.0803    0.5536   -1.7583 H   0  0  0  0  0  0  0  0  0  0  0  0
    0.1113    1.5213   -0.9001 H   0  0  0  0  0  0  0  0  0  0  0  0
   -2.0033    1.5987    0.2631 H   0  0  0  0  0  0  0  0  0  0  0  0
   -0.8283    0.7685    1.2745 H   0  0  0  0  0  0  0  0  0  0  0  0
   -2.9175   -0.6319   -0.4610 H   0  0  0  0  0  0  0  0  0  0  0  0
   -3.0692   -0.3495    1.2739 H   0  0  0  0  0  0  0  0  0  0  0  0
   -1.8135   -1.4230    0.6659 H   0  0  0  0  0  0  0  0  0  0  0  0
  1  8  1  1
  1  7  1  0
  2  1  1  0
  2 10  1  1
  3  4  1  0
  3  2  1  0
  4  5  1  0
  5  6  1  0
  5 17  1  1
  6 20  1  1
  6 19  1  0
  9  1  1  0
 11  2  1  0
  3 12  1  6
 13  3  1  0
  4 14  1  6
 15  4  1  0
 16  5  1  0
 18  6  1  0
M  END
$$$$
