Coordinates from ORCA-job xac
     RDKit          3D

 26 26  0  0  0  0  0  0  0  0999 V2000
    0.9810    0.1210   -0.0730 N   0  0  0  0  0  0  0  0  0  0  0  0
   -0.0770    0.4600    0.8730 C   0  0  2  0  0  0  0  0  0  0  0  0
   -1.4690   -0.0350    0.4740 C   0  0  0  0  0  0  0  0  0  0  0  0
   -2.4270    0.1680    1.2100 O   0  0  0  0  0  0  0  0  0  0  0  0
   -0.0480    1.9920    0.8790 C   0  0  1  0  0  0  0  0  0  0  0  0
    0.3350    2.3180   -0.5640 C   0  0  1  0  0  0  0  0  0  0  0  0
    1.4040    1.2750   -0.8750 C   0  0  2  0  0  0  0  0  0  0  0  0
    0.1220    0.0550    1.8630 H   0  0  0  0  0  0  0  0  0  0  0  0
   -1.0010    2.4050    1.1980 H   0  0  0  0  0  0  0  0  0  0  0  0
    0.7320    2.3340    1.5590 H   0  0  0  0  0  0  0  0  0  0  0  0
   -0.5270    2.1810   -1.2170 H   0  0  0  0  0  0  0  0  0  0  0  0
    0.7010    3.3340   -0.6910 H   0  0  0  0  0  0  0  0  0  0  0  0
    1.4650    1.0070   -1.9280 H   0  0  0  0  0  0  0  0  0  0  0  0
    2.3990    1.5960   -0.5600 H   0  0  0  0  0  0  0  0  0  0  0  0
   -1.5350   -0.6740   -0.7170 N   0  0  0  0  0  0  0  0  0  0  0  0
   -0.6730   -0.7760   -1.2250 H   0  0  0  0  0  0  0  0  0  0  0  0
   -2.7770   -1.1980   -1.2420 C   0  0  1  0  0  0  0  0  0  0  0  0
   -2.6950   -2.2650   -1.4390 H   0  0  0  0  0  0  0  0  0  0  0  0
   -3.5410   -1.0280   -0.4900 H   0  0  0  0  0  0  0  0  0  0  0  0
   -3.0620   -0.6880   -2.1610 H   0  0  0  0  0  0  0  0  0  0  0  0
    1.7800   -0.9890   -0.0190 C   0  0  0  0  0  0  0  0  0  0  0  0
    2.7680   -1.0900   -0.7370 O   0  0  0  0  0  0  0  0  0  0  0  0
    1.3640   -2.0640    0.9570 C   0  0  2  0  0  0  0  0  0  0  0  0
    1.9100   -2.9690    0.7120 H   0  0  0  0  0  0  0  0  0  0  0  0
    0.2930   -2.2550    0.9260 H   0  0  0  0  0  0  0  0  0  0  0  0
    1.6230   -1.7650    1.9720 H   0  0  0  0  0  0  0  0  0  0  0  0
  1  7  1  0
  1 21  1  0
  1  2  1  0
  2  3  1  0
  2  5  1  0
  2  8  1  1
  3 15  1  0
  3  4  1  0
  5  6  1  0
  5  9  1  1
  5 10  1  0
  6 11  1  6
  6  7  1  0
  6 12  1  0
  7 13  1  6
  7 14  1  0
 15 17  1  0
 15 16  1  0
 17 20  1  6
 17 18  1  0
 17 19  1  0
 21 22  1  0
 21 23  1  0
 23 24  1  6
 23 25  1  0
 23 26  1  0
M  END
$$$$
