-61.56403175
     RDKit          3D

 37 37  0  0  1  0  0  0  0  0999 V2000
   -0.5390   -2.2630    0.1192 O   0  0  0  0  0  0  0  0  0  0  0  0
   -1.3882   -3.0080   -0.2847 C   0  0  0  0  0  0  0  0  0  0  0  0
   -1.1929   -4.3177   -0.4596 O   0  0  0  0  0  0  0  0  0  0  0  0
   -0.2921   -4.5678   -0.1984 H   0  0  0  0  0  0  0  0  0  0  0  0
   -2.8023   -2.5995   -0.6570 C   0  0  2  0  0  0  0  0  0  0  0  0
   -3.4828   -3.0364    0.0827 H   0  0  0  0  0  0  0  0  0  0  0  0
   -3.0458   -2.9981   -1.6446 H   0  0  0  0  0  0  0  0  0  0  0  0
   -2.9652   -1.1723   -0.6206 N   0  0  0  0  0  0  0  0  0  0  0  0
   -2.4531   -0.6099   -1.2999 H   0  0  0  0  0  0  0  0  0  0  0  0
   -3.4004   -0.5569    0.4981 C   0  0  0  0  0  0  0  0  0  0  0  0
   -3.8872   -1.1282    1.4493 O   0  0  0  0  0  0  0  0  0  0  0  0
   -3.2487    0.9698    0.4207 C   0  0  2  0  0  0  0  0  0  0  0  0
   -3.7600    1.4218    1.2703 H   0  0  0  0  0  0  0  0  0  0  0  0
   -3.6977    1.3189   -0.5147 H   0  0  0  0  0  0  0  0  0  0  0  0
   -1.8571    1.3628    0.4390 N   0  0  0  0  0  0  0  0  0  0  0  0
   -1.4218    1.6427    1.3078 H   0  0  0  0  0  0  0  0  0  0  0  0
   -1.0474    1.2866   -0.6244 C   0  0  0  0  0  0  0  0  0  0  0  0
   -1.3994    0.8789   -1.7222 O   0  0  0  0  0  0  0  0  0  0  0  0
    0.3825    1.7306   -0.3379 C   0  0  1  0  0  0  0  0  0  0  0  0
    0.4155    2.5921    0.8366 N   0  0  0  0  0  0  0  0  0  0  0  0
    0.0687    3.5178    0.6077 H   0  0  0  0  0  0  0  0  0  0  0  0
    1.3723    2.6915    1.1608 H   0  0  0  0  0  0  0  0  0  0  0  0
    0.7703    2.2147   -1.2499 H   0  0  0  0  0  0  0  0  0  0  0  0
    1.2116    0.4565   -0.0773 C   0  0  2  0  0  0  0  0  0  0  0  0
    1.0551   -0.2276   -0.9119 H   0  0  0  0  0  0  0  0  0  0  0  0
    0.8400   -0.0226    0.8287 H   0  0  0  0  0  0  0  0  0  0  0  0
    2.6675    0.7936    0.0583 C   0  0  0  0  0  0  0  0  0  0  0  0
    3.4402    1.0340   -1.0723 C   0  0  0  0  0  0  0  0  0  0  0  0
    2.9923    0.9356   -2.0510 H   0  0  0  0  0  0  0  0  0  0  0  0
    4.7717    1.3892   -0.9546 C   0  0  0  0  0  0  0  0  0  0  0  0
    5.3614    1.5688   -1.8418 H   0  0  0  0  0  0  0  0  0  0  0  0
    5.3496    1.5133    0.2981 C   0  0  0  0  0  0  0  0  0  0  0  0
    6.3892    1.7907    0.3907 H   0  0  0  0  0  0  0  0  0  0  0  0
    4.5897    1.2757    1.4302 C   0  0  0  0  0  0  0  0  0  0  0  0
    5.0353    1.3675    2.4101 H   0  0  0  0  0  0  0  0  0  0  0  0
    3.2570    0.9193    1.3103 C   0  0  0  0  0  0  0  0  0  0  0  0
    2.6693    0.7269    2.1969 H   0  0  0  0  0  0  0  0  0  0  0  0
  2  1  2  0
  3  2  1  0
  3  4  1  0
  5  8  1  0
  5  2  1  0
  5  6  1  1
  7  5  1  0
  8 10  1  0
  9  8  1  0
 10 11  2  0
 12 15  1  0
 12 10  1  0
 12 13  1  1
 14 12  1  0
 15 16  1  0
 17 19  1  0
 17 15  1  0
 18 17  2  0
 19 23  1  6
 19 24  1  0
 19 20  1  0
 20 22  1  0
 21 20  1  0
 24 27  1  0
 24 26  1  1
 25 24  1  0
 27 36  2  0
 28 30  2  0
 28 27  1  0
 29 28  1  0
 30 32  1  0
 31 30  1  0
 32 33  1  0
 32 34  2  0
 34 35  1  0
 36 34  1  0
 36 37  1  0
M  END
$$$$
