-61.56388412
     RDKit          3D

 37 37  0  0  1  0  0  0  0  0999 V2000
   -0.1528   -1.0694   -1.0815 O   0  0  0  0  0  0  0  0  0  0  0  0
   -0.0414   -2.0779   -0.4377 C   0  0  0  0  0  0  0  0  0  0  0  0
    0.7556   -3.0868   -0.7746 O   0  0  0  0  0  0  0  0  0  0  0  0
    1.2481   -2.8786   -1.5854 H   0  0  0  0  0  0  0  0  0  0  0  0
   -0.8147   -2.3587    0.8438 C   0  0  2  0  0  0  0  0  0  0  0  0
   -0.1219   -2.5941    1.6515 H   0  0  0  0  0  0  0  0  0  0  0  0
   -1.4654   -3.2197    0.6609 H   0  0  0  0  0  0  0  0  0  0  0  0
   -1.6304   -1.2210    1.1781 N   0  0  0  0  0  0  0  0  0  0  0  0
   -1.1583   -0.4218    1.5889 H   0  0  0  0  0  0  0  0  0  0  0  0
   -2.7259   -0.9656    0.4188 C   0  0  0  0  0  0  0  0  0  0  0  0
   -3.3003   -1.7995   -0.2439 O   0  0  0  0  0  0  0  0  0  0  0  0
   -3.1396    0.5080    0.4618 C   0  0  2  0  0  0  0  0  0  0  0  0
   -3.1684    0.8673    1.4930 H   0  0  0  0  0  0  0  0  0  0  0  0
   -4.1120    0.6362   -0.0145 H   0  0  0  0  0  0  0  0  0  0  0  0
   -2.1444    1.2843   -0.2558 N   0  0  0  0  0  0  0  0  0  0  0  0
   -2.1529    1.1975   -1.2607 H   0  0  0  0  0  0  0  0  0  0  0  0
   -1.0001    1.6849    0.3438 C   0  0  0  0  0  0  0  0  0  0  0  0
   -0.8152    1.5529    1.5429 O   0  0  0  0  0  0  0  0  0  0  0  0
   -0.0429    2.4388   -0.5804 C   0  0  1  0  0  0  0  0  0  0  0  0
   -0.5016    3.8086   -0.7862 N   0  0  0  0  0  0  0  0  0  0  0  0
   -0.5073    4.3037    0.1002 H   0  0  0  0  0  0  0  0  0  0  0  0
   -1.4462    3.8213   -1.1561 H   0  0  0  0  0  0  0  0  0  0  0  0
   -0.0215    1.9394   -1.5557 H   0  0  0  0  0  0  0  0  0  0  0  0
    1.3698    2.4648    0.0173 C   0  0  2  0  0  0  0  0  0  0  0  0
    1.2978    2.8072    1.0511 H   0  0  0  0  0  0  0  0  0  0  0  0
    1.9560    3.1850   -0.5554 H   0  0  0  0  0  0  0  0  0  0  0  0
    2.0148    1.1100   -0.0291 C   0  0  0  0  0  0  0  0  0  0  0  0
    2.0409    0.2949    1.0946 C   0  0  0  0  0  0  0  0  0  0  0  0
    1.5864    0.6428    2.0104 H   0  0  0  0  0  0  0  0  0  0  0  0
    2.6382   -0.9524    1.0468 C   0  0  0  0  0  0  0  0  0  0  0  0
    2.6587   -1.5759    1.9295 H   0  0  0  0  0  0  0  0  0  0  0  0
    3.2179   -1.4017   -0.1274 C   0  0  0  0  0  0  0  0  0  0  0  0
    3.6899   -2.3733   -0.1610 H   0  0  0  0  0  0  0  0  0  0  0  0
    3.1850   -0.6005   -1.2567 C   0  0  0  0  0  0  0  0  0  0  0  0
    3.6330   -0.9454   -2.1785 H   0  0  0  0  0  0  0  0  0  0  0  0
    2.5875    0.6458   -1.2064 C   0  0  0  0  0  0  0  0  0  0  0  0
    2.5701    1.2700   -2.0882 H   0  0  0  0  0  0  0  0  0  0  0  0
  1  2  2  0
  2  5  1  0
  3  2  1  0
  4  3  1  0
  5  8  1  0
  5  6  1  1
  7  5  1  0
  8  9  1  0
 10 12  1  0
 10  8  1  0
 11 10  2  0
 12 13  1  1
 14 12  1  0
 15 17  1  0
 15 12  1  0
 16 15  1  0
 17 18  2  0
 19 23  1  6
 19 24  1  0
 19 17  1  0
 20 19  1  0
 20 21  1  0
 22 20  1  0
 24 25  1  1
 26 24  1  0
 27 24  1  0
 27 28  2  0
 28 29  1  0
 30 28  1  0
 30 31  1  0
 32 30  2  0
 33 32  1  0
 34 36  2  0
 34 32  1  0
 35 34  1  0
 36 27  1  0
 37 36  1  0
M  END
$$$$
