-61.56350864
     RDKit          3D

 37 37  0  0  1  0  0  0  0  0999 V2000
    0.3186   -4.1362   -1.0305 O   0  0  0  0  0  0  0  0  0  0  0  0
   -0.4689   -3.2359   -0.9250 C   0  0  0  0  0  0  0  0  0  0  0  0
   -1.3207   -2.8939   -1.8923 O   0  0  0  0  0  0  0  0  0  0  0  0
   -1.2157   -3.4746   -2.6625 H   0  0  0  0  0  0  0  0  0  0  0  0
   -0.6069   -2.3622    0.3040 C   0  0  2  0  0  0  0  0  0  0  0  0
    0.3964   -2.1767    0.7067 H   0  0  0  0  0  0  0  0  0  0  0  0
   -1.1813   -2.9116    1.0605 H   0  0  0  0  0  0  0  0  0  0  0  0
   -1.3065   -1.1337    0.0459 N   0  0  0  0  0  0  0  0  0  0  0  0
   -1.0337   -0.5762   -0.7564 H   0  0  0  0  0  0  0  0  0  0  0  0
   -2.3585   -0.7426    0.7875 C   0  0  0  0  0  0  0  0  0  0  0  0
   -2.8043   -1.3687    1.7247 O   0  0  0  0  0  0  0  0  0  0  0  0
   -2.9173    0.6157    0.3391 C   0  0  2  0  0  0  0  0  0  0  0  0
   -3.7806    0.8664    0.9553 H   0  0  0  0  0  0  0  0  0  0  0  0
   -3.2174    0.5400   -0.7108 H   0  0  0  0  0  0  0  0  0  0  0  0
   -1.9242    1.6599    0.4520 N   0  0  0  0  0  0  0  0  0  0  0  0
   -1.8391    2.1823    1.3132 H   0  0  0  0  0  0  0  0  0  0  0  0
   -0.9893    1.8825   -0.4824 C   0  0  0  0  0  0  0  0  0  0  0  0
   -0.9246    1.2577   -1.5286 O   0  0  0  0  0  0  0  0  0  0  0  0
   -0.0254    3.0176   -0.1273 C   0  0  1  0  0  0  0  0  0  0  0  0
   -0.0181    3.2117    1.3136 N   0  0  0  0  0  0  0  0  0  0  0  0
    0.4645    4.0712    1.5515 H   0  0  0  0  0  0  0  0  0  0  0  0
    0.4820    2.4467    1.7594 H   0  0  0  0  0  0  0  0  0  0  0  0
   -0.4397    3.9282   -0.5804 H   0  0  0  0  0  0  0  0  0  0  0  0
    1.3619    2.7547   -0.7639 C   0  0  2  0  0  0  0  0  0  0  0  0
    1.9920    3.6315   -0.5942 H   0  0  0  0  0  0  0  0  0  0  0  0
    1.2135    2.6291   -1.8364 H   0  0  0  0  0  0  0  0  0  0  0  0
    2.0156    1.5294   -0.1918 C   0  0  0  0  0  0  0  0  0  0  0  0
    2.7349    1.5982    0.9966 C   0  0  0  0  0  0  0  0  0  0  0  0
    2.8734    2.5519    1.4891 H   0  0  0  0  0  0  0  0  0  0  0  0
    3.3043    0.4619    1.5459 C   0  0  0  0  0  0  0  0  0  0  0  0
    3.8583    0.5326    2.4706 H   0  0  0  0  0  0  0  0  0  0  0  0
    3.1736   -0.7580    0.9061 C   0  0  0  0  0  0  0  0  0  0  0  0
    3.6229   -1.6439    1.3293 H   0  0  0  0  0  0  0  0  0  0  0  0
    2.4743   -0.8348   -0.2876 C   0  0  0  0  0  0  0  0  0  0  0  0
    2.3892   -1.7814   -0.8018 H   0  0  0  0  0  0  0  0  0  0  0  0
    1.8947    0.2993   -0.8281 C   0  0  0  0  0  0  0  0  0  0  0  0
    1.3453    0.2387   -1.7554 H   0  0  0  0  0  0  0  0  0  0  0  0
  1  2  2  0
  2  5  1  0
  3  2  1  0
  4  3  1  0
  5  6  1  1
  5  7  1  0
  8  5  1  0
  8 10  1  0
  9  8  1  0
 10 11  2  0
 12 15  1  0
 12 10  1  0
 12 13  1  1
 14 12  1  0
 15 16  1  0
 17 19  1  0
 17 15  1  0
 18 17  2  0
 19 23  1  6
 19 20  1  0
 20 21  1  0
 20 22  1  0
 24 25  1  6
 24 27  1  0
 24 19  1  0
 26 24  1  0
 27 28  2  0
 28 29  1  0
 28 30  1  0
 30 31  1  0
 32 33  1  0
 32 30  2  0
 34 32  1  0
 35 34  1  0
 36 34  2  0
 36 27  1  0
 37 36  1  0
M  END
$$$$
