-61.56305015
     RDKit          3D

 37 37  0  0  1  0  0  0  0  0999 V2000
   -2.9538   -2.9075    1.4017 O   0  0  0  0  0  0  0  0  0  0  0  0
   -1.8081   -3.2559    1.4404 C   0  0  0  0  0  0  0  0  0  0  0  0
   -1.4040   -4.3983    2.0054 O   0  0  0  0  0  0  0  0  0  0  0  0
   -2.1632   -4.8943    2.3516 H   0  0  0  0  0  0  0  0  0  0  0  0
   -0.6345   -2.4771    0.8742 C   0  0  2  0  0  0  0  0  0  0  0  0
   -0.2009   -3.0552    0.0506 H   0  0  0  0  0  0  0  0  0  0  0  0
    0.1198   -2.3595    1.6586 H   0  0  0  0  0  0  0  0  0  0  0  0
   -1.0484   -1.2094    0.3418 N   0  0  0  0  0  0  0  0  0  0  0  0
   -1.4650   -0.5268    0.9673 H   0  0  0  0  0  0  0  0  0  0  0  0
   -1.0809   -0.9784   -0.9842 C   0  0  0  0  0  0  0  0  0  0  0  0
   -0.6594   -1.7481   -1.8204 O   0  0  0  0  0  0  0  0  0  0  0  0
   -1.6779    0.3913   -1.3322 C   0  0  2  0  0  0  0  0  0  0  0  0
   -2.6383    0.4965   -0.8194 H   0  0  0  0  0  0  0  0  0  0  0  0
   -1.8236    0.4487   -2.4109 H   0  0  0  0  0  0  0  0  0  0  0  0
   -0.8228    1.4849   -0.9153 N   0  0  0  0  0  0  0  0  0  0  0  0
   -0.0976    1.7695   -1.5560 H   0  0  0  0  0  0  0  0  0  0  0  0
   -0.7605    1.9084    0.3625 C   0  0  0  0  0  0  0  0  0  0  0  0
   -1.4637    1.4547    1.2506 O   0  0  0  0  0  0  0  0  0  0  0  0
    0.2469    3.0334    0.6239 C   0  0  1  0  0  0  0  0  0  0  0  0
   -0.1456    3.8784    1.7340 N   0  0  0  0  0  0  0  0  0  0  0  0
   -0.3753    3.2882    2.5295 H   0  0  0  0  0  0  0  0  0  0  0  0
   -0.9856    4.3982    1.5014 H   0  0  0  0  0  0  0  0  0  0  0  0
    0.3370    3.6576   -0.2716 H   0  0  0  0  0  0  0  0  0  0  0  0
    1.6167    2.3939    0.9449 C   0  0  2  0  0  0  0  0  0  0  0  0
    1.5281    1.8622    1.8938 H   0  0  0  0  0  0  0  0  0  0  0  0
    2.3353    3.2048    1.0746 H   0  0  0  0  0  0  0  0  0  0  0  0
    2.0586    1.4527   -0.1371 C   0  0  0  0  0  0  0  0  0  0  0  0
    2.4524    1.9404   -1.3794 C   0  0  0  0  0  0  0  0  0  0  0  0
    2.4937    3.0087   -1.5427 H   0  0  0  0  0  0  0  0  0  0  0  0
    2.7968    1.0721   -2.4004 C   0  0  0  0  0  0  0  0  0  0  0  0
    3.0985    1.4650   -3.3605 H   0  0  0  0  0  0  0  0  0  0  0  0
    2.7548   -0.2966   -2.1929 C   0  0  0  0  0  0  0  0  0  0  0  0
    3.0151   -0.9744   -2.9909 H   0  0  0  0  0  0  0  0  0  0  0  0
    2.3790   -0.7916   -0.9567 C   0  0  0  0  0  0  0  0  0  0  0  0
    2.3505   -1.8572   -0.7895 H   0  0  0  0  0  0  0  0  0  0  0  0
    2.0318    0.0784    0.0618 C   0  0  0  0  0  0  0  0  0  0  0  0
    1.7365   -0.3097    1.0260 H   0  0  0  0  0  0  0  0  0  0  0  0
  1  2  2  0
  2  3  1  0
  3  4  1  0
  5  2  1  0
  5  7  1  1
  6  5  1  0
  8  5  1  0
  8  9  1  0
 10  8  1  0
 11 10  2  0
 12 10  1  0
 12 15  1  0
 12 13  1  1
 14 12  1  0
 15 17  1  0
 16 15  1  0
 17 19  1  0
 17 18  2  0
 19 23  1  6
 19 24  1  0
 19 20  1  0
 20 21  1  0
 22 20  1  0
 24 26  1  1
 24 25  1  0
 27 36  1  0
 27 24  1  0
 28 27  2  0
 29 28  1  0
 30 32  2  0
 30 28  1  0
 31 30  1  0
 32 34  1  0
 33 32  1  0
 34 35  1  0
 34 36  2  0
 36 37  1  0
M  END
$$$$
