-61.56304836
     RDKit          3D

 37 37  0  0  1  0  0  0  0  0999 V2000
   -2.7492   -3.0106   -1.7287 O   0  0  0  0  0  0  0  0  0  0  0  0
   -1.6950   -3.3783   -1.2941 C   0  0  0  0  0  0  0  0  0  0  0  0
   -1.1705   -4.5808   -1.5556 O   0  0  0  0  0  0  0  0  0  0  0  0
   -1.7689   -5.0980   -2.1182 H   0  0  0  0  0  0  0  0  0  0  0  0
   -0.7821   -2.5643   -0.3943 C   0  0  2  0  0  0  0  0  0  0  0  0
    0.2178   -2.5409   -0.8371 H   0  0  0  0  0  0  0  0  0  0  0  0
   -0.7275   -3.0623    0.5802 H   0  0  0  0  0  0  0  0  0  0  0  0
   -1.2933   -1.2400   -0.1817 N   0  0  0  0  0  0  0  0  0  0  0  0
   -1.3378   -0.5921   -0.9647 H   0  0  0  0  0  0  0  0  0  0  0  0
   -1.8747   -0.8836    0.9773 C   0  0  0  0  0  0  0  0  0  0  0  0
   -1.9107   -1.5815    1.9680 O   0  0  0  0  0  0  0  0  0  0  0  0
   -2.4796    0.5285    0.9257 C   0  0  2  0  0  0  0  0  0  0  0  0
   -3.0463    0.6975    1.8408 H   0  0  0  0  0  0  0  0  0  0  0  0
   -3.1489    0.5790    0.0602 H   0  0  0  0  0  0  0  0  0  0  0  0
   -1.4704    1.5571    0.7999 N   0  0  0  0  0  0  0  0  0  0  0  0
   -1.2190    2.1140    1.6049 H   0  0  0  0  0  0  0  0  0  0  0  0
   -0.8474    1.8542   -0.3461 C   0  0  0  0  0  0  0  0  0  0  0  0
   -1.0391    1.2639   -1.3980 O   0  0  0  0  0  0  0  0  0  0  0  0
    0.1231    3.0351   -0.2422 C   0  0  1  0  0  0  0  0  0  0  0  0
    0.3141    3.4157    1.1478 N   0  0  0  0  0  0  0  0  0  0  0  0
    0.7299    4.3384    1.2067 H   0  0  0  0  0  0  0  0  0  0  0  0
    0.9565    2.7653    1.5944 H   0  0  0  0  0  0  0  0  0  0  0  0
   -0.3678    3.8712   -0.7561 H   0  0  0  0  0  0  0  0  0  0  0  0
    1.4282    2.6967   -1.0068 C   0  0  2  0  0  0  0  0  0  0  0  0
    2.0239    3.6067   -1.1098 H   0  0  0  0  0  0  0  0  0  0  0  0
    1.1462    2.3432   -1.9987 H   0  0  0  0  0  0  0  0  0  0  0  0
    2.2102    1.6440   -0.2762 C   0  0  0  0  0  0  0  0  0  0  0  0
    3.1565    2.0029    0.6776 C   0  0  0  0  0  0  0  0  0  0  0  0
    3.3794    3.0485    0.8458 H   0  0  0  0  0  0  0  0  0  0  0  0
    3.8326    1.0361    1.4022 C   0  0  0  0  0  0  0  0  0  0  0  0
    4.5655    1.3315    2.1389 H   0  0  0  0  0  0  0  0  0  0  0  0
    3.5697   -0.3040    1.1812 C   0  0  0  0  0  0  0  0  0  0  0  0
    4.0946   -1.0597    1.7460 H   0  0  0  0  0  0  0  0  0  0  0  0
    2.6359   -0.6718    0.2266 C   0  0  0  0  0  0  0  0  0  0  0  0
    2.4396   -1.7186    0.0464 H   0  0  0  0  0  0  0  0  0  0  0  0
    1.9603    0.2944   -0.4960 C   0  0  0  0  0  0  0  0  0  0  0  0
    1.2346    0.0103   -1.2429 H   0  0  0  0  0  0  0  0  0  0  0  0
  1  2  2  0
  2  5  1  0
  3  2  1  0
  4  3  1  0
  5  8  1  0
  5  7  1  1
  6  5  1  0
  8 10  1  0
  9  8  1  0
 10 11  2  0
 12 10  1  0
 12 13  1  1
 14 12  1  0
 15 12  1  0
 15 16  1  0
 17 19  1  0
 17 15  1  0
 18 17  2  0
 19 23  1  6
 19 20  1  0
 20 21  1  0
 20 22  1  0
 24 27  1  0
 24 19  1  0
 24 25  1  6
 26 24  1  0
 27 28  1  0
 28 29  1  0
 28 30  2  0
 30 31  1  0
 32 30  1  0
 32 33  1  0
 34 32  2  0
 35 34  1  0
 36 27  2  0
 36 34  1  0
 37 36  1  0
M  END
$$$$
