-61.56286111
     RDKit          3D

 37 37  0  0  1  0  0  0  0  0999 V2000
    0.8845   -3.3888    1.0585 O   0  0  0  0  0  0  0  0  0  0  0  0
    0.1254   -2.4640    0.9637 C   0  0  0  0  0  0  0  0  0  0  0  0
    0.3493   -1.2749    1.5220 O   0  0  0  0  0  0  0  0  0  0  0  0
    1.2156   -1.2603    1.9595 H   0  0  0  0  0  0  0  0  0  0  0  0
   -1.2050   -2.5289    0.2388 C   0  0  2  0  0  0  0  0  0  0  0  0
   -1.8328   -3.2522    0.7759 H   0  0  0  0  0  0  0  0  0  0  0  0
   -1.0425   -2.9148   -0.7730 H   0  0  0  0  0  0  0  0  0  0  0  0
   -1.8686   -1.2572    0.1340 N   0  0  0  0  0  0  0  0  0  0  0  0
   -1.8489   -0.6417    0.9437 H   0  0  0  0  0  0  0  0  0  0  0  0
   -2.2203   -0.7385   -1.0562 C   0  0  0  0  0  0  0  0  0  0  0  0
   -2.1087   -1.3125   -2.1187 O   0  0  0  0  0  0  0  0  0  0  0  0
   -2.8106    0.6765   -0.9340 C   0  0  2  0  0  0  0  0  0  0  0  0
   -3.4960    0.7087   -0.0826 H   0  0  0  0  0  0  0  0  0  0  0  0
   -3.3446    0.9201   -1.8522 H   0  0  0  0  0  0  0  0  0  0  0  0
   -1.7680    1.6613   -0.7196 N   0  0  0  0  0  0  0  0  0  0  0  0
   -1.3941    2.1254   -1.5303 H   0  0  0  0  0  0  0  0  0  0  0  0
   -1.1541    1.8076    0.4695 C   0  0  0  0  0  0  0  0  0  0  0  0
   -1.4918    1.1871    1.4643 O   0  0  0  0  0  0  0  0  0  0  0  0
   -0.0344    2.8557    0.5239 C   0  0  1  0  0  0  0  0  0  0  0  0
    0.5884    2.8945    1.8325 N   0  0  0  0  0  0  0  0  0  0  0  0
    0.9409    1.9678    2.0557 H   0  0  0  0  0  0  0  0  0  0  0  0
   -0.1111    3.1103    2.5358 H   0  0  0  0  0  0  0  0  0  0  0  0
   -0.4923    3.8392    0.3485 H   0  0  0  0  0  0  0  0  0  0  0  0
    1.0435    2.6303   -0.5598 C   0  0  2  0  0  0  0  0  0  0  0  0
    1.8499    3.3322   -0.3403 H   0  0  0  0  0  0  0  0  0  0  0  0
    0.6349    2.8809   -1.5409 H   0  0  0  0  0  0  0  0  0  0  0  0
    1.5912    1.2296   -0.5786 C   0  0  0  0  0  0  0  0  0  0  0  0
    2.6186    0.8679    0.2856 C   0  0  0  0  0  0  0  0  0  0  0  0
    3.0201    1.6034    0.9677 H   0  0  0  0  0  0  0  0  0  0  0  0
    3.1432   -0.4132    0.2634 C   0  0  0  0  0  0  0  0  0  0  0  0
    3.9469   -0.6759    0.9370 H   0  0  0  0  0  0  0  0  0  0  0  0
    2.6529   -1.3531   -0.6285 C   0  0  0  0  0  0  0  0  0  0  0  0
    3.0614   -2.3518   -0.6471 H   0  0  0  0  0  0  0  0  0  0  0  0
    1.6287   -1.0028   -1.4912 C   0  0  0  0  0  0  0  0  0  0  0  0
    1.2365   -1.7244   -2.1919 H   0  0  0  0  0  0  0  0  0  0  0  0
    1.1047    0.2777   -1.4663 C   0  0  0  0  0  0  0  0  0  0  0  0
    0.3197    0.5325   -2.1638 H   0  0  0  0  0  0  0  0  0  0  0  0
  2  1  2  0
  2  3  1  0
  3  4  1  0
  5  6  1  1
  5  2  1  0
  7  5  1  0
  8  5  1  0
  8  9  1  0
 10 12  1  0
 10  8  1  0
 11 10  2  0
 12 15  1  0
 12 13  1  1
 14 12  1  0
 15 17  1  0
 16 15  1  0
 17 19  1  0
 17 18  2  0
 19 23  1  6
 19 20  1  0
 20 21  1  0
 20 22  1  0
 24 25  1  1
 24 19  1  0
 26 24  1  0
 27 24  1  0
 27 28  2  0
 28 29  1  0
 30 28  1  0
 30 31  1  0
 32 30  2  0
 33 32  1  0
 34 36  2  0
 34 32  1  0
 35 34  1  0
 36 27  1  0
 37 36  1  0
M  END
$$$$
