-61.56266523
     RDKit          3D

 37 37  0  0  1  0  0  0  0  0999 V2000
   -5.1403   -0.7086   -1.7090 O   0  0  0  0  0  0  0  0  0  0  0  0
   -4.1193   -0.8117   -1.0873 C   0  0  0  0  0  0  0  0  0  0  0  0
   -3.4083    0.2428   -0.6757 O   0  0  0  0  0  0  0  0  0  0  0  0
   -3.8506    1.0652   -0.9389 H   0  0  0  0  0  0  0  0  0  0  0  0
   -3.4946   -2.1314   -0.6720 C   0  0  2  0  0  0  0  0  0  0  0  0
   -3.5551   -2.8248   -1.5157 H   0  0  0  0  0  0  0  0  0  0  0  0
   -4.0933   -2.5337    0.1547 H   0  0  0  0  0  0  0  0  0  0  0  0
   -2.1434   -2.0006   -0.2015 N   0  0  0  0  0  0  0  0  0  0  0  0
   -1.4380   -1.6446   -0.8436 H   0  0  0  0  0  0  0  0  0  0  0  0
   -1.8558   -2.0054    1.1145 C   0  0  0  0  0  0  0  0  0  0  0  0
   -2.6468   -2.2838    1.9893 O   0  0  0  0  0  0  0  0  0  0  0  0
   -0.3893   -1.6410    1.3936 C   0  0  2  0  0  0  0  0  0  0  0  0
    0.2553   -2.2616    0.7637 H   0  0  0  0  0  0  0  0  0  0  0  0
   -0.1706   -1.8260    2.4450 H   0  0  0  0  0  0  0  0  0  0  0  0
   -0.1211   -0.2518    1.0922 N   0  0  0  0  0  0  0  0  0  0  0  0
   -0.2101    0.4436    1.8204 H   0  0  0  0  0  0  0  0  0  0  0  0
    0.0692    0.2085   -0.1496 C   0  0  0  0  0  0  0  0  0  0  0  0
    0.0384   -0.4989   -1.1464 O   0  0  0  0  0  0  0  0  0  0  0  0
    0.3256    1.7142   -0.2323 C   0  0  1  0  0  0  0  0  0  0  0  0
    0.4713    2.2804    1.0980 N   0  0  0  0  0  0  0  0  0  0  0  0
    0.3934    3.2906    1.0606 H   0  0  0  0  0  0  0  0  0  0  0  0
    1.3959    2.0619    1.4615 H   0  0  0  0  0  0  0  0  0  0  0  0
   -0.5770    2.1445   -0.6844 H   0  0  0  0  0  0  0  0  0  0  0  0
    1.5194    1.9786   -1.1846 C   0  0  2  0  0  0  0  0  0  0  0  0
    1.5699    3.0480   -1.4016 H   0  0  0  0  0  0  0  0  0  0  0  0
    1.3285    1.4368   -2.1113 H   0  0  0  0  0  0  0  0  0  0  0  0
    2.8037    1.5130   -0.5616 C   0  0  0  0  0  0  0  0  0  0  0  0
    3.2037    0.1862   -0.6734 C   0  0  0  0  0  0  0  0  0  0  0  0
    2.6065   -0.4985   -1.2564 H   0  0  0  0  0  0  0  0  0  0  0  0
    4.3557   -0.2552   -0.0485 C   0  0  0  0  0  0  0  0  0  0  0  0
    4.6572   -1.2877   -0.1463 H   0  0  0  0  0  0  0  0  0  0  0  0
    5.1243    0.6223    0.6986 C   0  0  0  0  0  0  0  0  0  0  0  0
    6.0239    0.2768    1.1860 H   0  0  0  0  0  0  0  0  0  0  0  0
    4.7381    1.9460    0.8121 C   0  0  0  0  0  0  0  0  0  0  0  0
    5.3353    2.6384    1.3876 H   0  0  0  0  0  0  0  0  0  0  0  0
    3.5843    2.3870    0.1866 C   0  0  0  0  0  0  0  0  0  0  0  0
    3.2960    3.4267    0.2704 H   0  0  0  0  0  0  0  0  0  0  0  0
  1  2  2  0
  2  3  1  0
  2  5  1  0
  4  3  1  0
  5  8  1  0
  5  7  1  1
  6  5  1  0
  8 10  1  0
  9  8  1  0
 10 12  1  0
 10 11  2  0
 12 14  1  1
 13 12  1  0
 15 12  1  0
 15 16  1  0
 17 15  1  0
 18 17  2  0
 19 23  1  6
 19 17  1  0
 19 20  1  0
 20 22  1  0
 21 20  1  0
 24 27  1  0
 24 19  1  0
 24 25  1  6
 26 24  1  0
 27 36  1  0
 28 27  2  0
 28 30  1  0
 29 28  1  0
 30 32  2  0
 31 30  1  0
 32 34  1  0
 32 33  1  0
 34 35  1  0
 36 37  1  0
 36 34  2  0
M  END
$$$$
