-61.56262814
     RDKit          3D

 37 37  0  0  1  0  0  0  0  0999 V2000
   -1.1482   -3.5178   -2.8441 O   0  0  0  0  0  0  0  0  0  0  0  0
   -1.1481   -2.5943   -2.0777 C   0  0  0  0  0  0  0  0  0  0  0  0
   -0.3710   -1.5198   -2.2386 O   0  0  0  0  0  0  0  0  0  0  0  0
    0.1601   -1.6056   -3.0462 H   0  0  0  0  0  0  0  0  0  0  0  0
   -2.0158   -2.5181   -0.8391 C   0  0  2  0  0  0  0  0  0  0  0  0
   -1.6167   -3.2179   -0.0936 H   0  0  0  0  0  0  0  0  0  0  0  0
   -3.0189   -2.8631   -1.1182 H   0  0  0  0  0  0  0  0  0  0  0  0
   -2.0657   -1.2192   -0.2248 N   0  0  0  0  0  0  0  0  0  0  0  0
   -2.2301   -0.3980   -0.8063 H   0  0  0  0  0  0  0  0  0  0  0  0
   -1.7268   -1.0343    1.0638 C   0  0  0  0  0  0  0  0  0  0  0  0
   -1.3780   -1.9214    1.8134 O   0  0  0  0  0  0  0  0  0  0  0  0
   -1.8905    0.4254    1.5219 C   0  0  2  0  0  0  0  0  0  0  0  0
   -1.7916    0.4555    2.6066 H   0  0  0  0  0  0  0  0  0  0  0  0
   -2.8933    0.7588    1.2327 H   0  0  0  0  0  0  0  0  0  0  0  0
   -0.9165    1.3216    0.9408 N   0  0  0  0  0  0  0  0  0  0  0  0
   -0.1342    1.6317    1.4988 H   0  0  0  0  0  0  0  0  0  0  0  0
   -0.9436    1.7319   -0.3335 C   0  0  0  0  0  0  0  0  0  0  0  0
   -1.7903    1.3893   -1.1454 O   0  0  0  0  0  0  0  0  0  0  0  0
    0.1957    2.6804   -0.6919 C   0  0  1  0  0  0  0  0  0  0  0  0
    0.5212    3.5050    0.4626 N   0  0  0  0  0  0  0  0  0  0  0  0
   -0.2575    4.1127    0.6935 H   0  0  0  0  0  0  0  0  0  0  0  0
    1.3227    4.0921    0.2602 H   0  0  0  0  0  0  0  0  0  0  0  0
   -0.1362    3.2603   -1.5710 H   0  0  0  0  0  0  0  0  0  0  0  0
    1.4310    1.8521   -1.1159 C   0  0  2  0  0  0  0  0  0  0  0  0
    2.1921    2.5435   -1.4856 H   0  0  0  0  0  0  0  0  0  0  0  0
    1.1285    1.1972   -1.9344 H   0  0  0  0  0  0  0  0  0  0  0  0
    1.9833    1.0429    0.0232 C   0  0  0  0  0  0  0  0  0  0  0  0
    2.9277    1.5812    0.8878 C   0  0  0  0  0  0  0  0  0  0  0  0
    3.3085    2.5772    0.7147 H   0  0  0  0  0  0  0  0  0  0  0  0
    3.3903    0.8502    1.9682 C   0  0  0  0  0  0  0  0  0  0  0  0
    4.1255    1.2815    2.6320 H   0  0  0  0  0  0  0  0  0  0  0  0
    2.9126   -0.4284    2.1995 C   0  0  0  0  0  0  0  0  0  0  0  0
    3.2686   -0.9951    3.0469 H   0  0  0  0  0  0  0  0  0  0  0  0
    1.9822   -0.9804    1.3352 C   0  0  0  0  0  0  0  0  0  0  0  0
    1.6015   -1.9753    1.5087 H   0  0  0  0  0  0  0  0  0  0  0  0
    1.5263   -0.2499    0.2527 C   0  0  0  0  0  0  0  0  0  0  0  0
    0.8057   -0.6833   -0.4234 H   0  0  0  0  0  0  0  0  0  0  0  0
  1  2  2  0
  2  5  1  0
  3  2  1  0
  4  3  1  0
  5  8  1  0
  5  6  1  1
  7  5  1  0
  8 10  1  0
  9  8  1  0
 10 12  1  0
 10 11  2  0
 12 13  1  1
 14 12  1  0
 15 16  1  0
 15 12  1  0
 17 15  1  0
 18 17  2  0
 19 23  1  6
 19 17  1  0
 19 20  1  0
 20 21  1  0
 22 20  1  0
 24 19  1  0
 24 27  1  0
 24 25  1  6
 26 24  1  0
 27 36  2  0
 27 28  1  0
 28 30  2  0
 29 28  1  0
 30 32  1  0
 30 31  1  0
 32 33  1  0
 34 35  1  0
 34 32  2  0
 36 34  1  0
 37 36  1  0
M  END
$$$$
