-61.56224029
     RDKit          3D

 37 37  0  0  1  0  0  0  0  0999 V2000
   -1.2204   -3.3610   -1.1383 O   0  0  0  0  0  0  0  0  0  0  0  0
   -1.7844   -2.6934   -0.3146 C   0  0  0  0  0  0  0  0  0  0  0  0
   -1.1704   -1.9956    0.6308 O   0  0  0  0  0  0  0  0  0  0  0  0
   -0.1977   -1.8865    0.4408 H   0  0  0  0  0  0  0  0  0  0  0  0
   -3.2937   -2.4474   -0.2742 C   0  0  2  0  0  0  0  0  0  0  0  0
   -3.7087   -2.7607    0.6867 H   0  0  0  0  0  0  0  0  0  0  0  0
   -3.7804   -2.9745   -1.0961 H   0  0  0  0  0  0  0  0  0  0  0  0
   -3.4790   -1.0157   -0.3911 N   0  0  0  0  0  0  0  0  0  0  0  0
   -3.0001   -0.5873   -1.1770 H   0  0  0  0  0  0  0  0  0  0  0  0
   -3.6513   -0.2493    0.7100 C   0  0  0  0  0  0  0  0  0  0  0  0
   -4.0949   -0.6454    1.7632 O   0  0  0  0  0  0  0  0  0  0  0  0
   -3.1464    1.1889    0.5082 C   0  0  2  0  0  0  0  0  0  0  0  0
   -3.5809    1.8530    1.2545 H   0  0  0  0  0  0  0  0  0  0  0  0
   -3.3652    1.5481   -0.4987 H   0  0  0  0  0  0  0  0  0  0  0  0
   -1.7026    1.1560    0.6850 N   0  0  0  0  0  0  0  0  0  0  0  0
   -1.3774    1.1377    1.6390 H   0  0  0  0  0  0  0  0  0  0  0  0
   -0.8827    0.7147   -0.2896 C   0  0  0  0  0  0  0  0  0  0  0  0
   -1.2616    0.4896   -1.4255 O   0  0  0  0  0  0  0  0  0  0  0  0
    0.5889    0.5698    0.0994 C   0  0  1  0  0  0  0  0  0  0  0  0
    1.0135   -0.7692   -0.2921 N   0  0  0  0  0  0  0  0  0  0  0  0
    2.0181   -0.8675   -0.1785 H   0  0  0  0  0  0  0  0  0  0  0  0
    0.7906   -0.9118   -1.2750 H   0  0  0  0  0  0  0  0  0  0  0  0
    0.7147    0.6536    1.1847 H   0  0  0  0  0  0  0  0  0  0  0  0
    1.3788    1.7052   -0.5971 C   0  0  2  0  0  0  0  0  0  0  0  0
    0.9794    2.6635   -0.2596 H   0  0  0  0  0  0  0  0  0  0  0  0
    1.2160    1.6219   -1.6738 H   0  0  0  0  0  0  0  0  0  0  0  0
    2.8398    1.6013   -0.2705 C   0  0  0  0  0  0  0  0  0  0  0  0
    3.3315    2.1185    0.9223 C   0  0  0  0  0  0  0  0  0  0  0  0
    2.6624    2.6404    1.5919 H   0  0  0  0  0  0  0  0  0  0  0  0
    4.6670    1.9788    1.2527 C   0  0  0  0  0  0  0  0  0  0  0  0
    5.0371    2.3902    2.1801 H   0  0  0  0  0  0  0  0  0  0  0  0
    5.5289    1.3132    0.3967 C   0  0  0  0  0  0  0  0  0  0  0  0
    6.5715    1.2038    0.6548 H   0  0  0  0  0  0  0  0  0  0  0  0
    5.0492    0.7929   -0.7924 C   0  0  0  0  0  0  0  0  0  0  0  0
    5.7160    0.2752   -1.4659 H   0  0  0  0  0  0  0  0  0  0  0  0
    3.7122    0.9349   -1.1227 C   0  0  0  0  0  0  0  0  0  0  0  0
    3.3460    0.5348   -2.0582 H   0  0  0  0  0  0  0  0  0  0  0  0
  1  2  2  0
  2  5  1  0
  2  3  1  0
  4  3  1  0
  5  6  1  1
  7  5  1  0
  8  5  1  0
  8 10  1  0
  9  8  1  0
 10 11  2  0
 12 15  1  0
 12 10  1  0
 12 13  1  1
 14 12  1  0
 15 16  1  0
 17 19  1  0
 17 15  1  0
 18 17  2  0
 19 23  1  1
 20 21  1  0
 20 19  1  0
 22 20  1  0
 24 27  1  0
 24 25  1  1
 24 19  1  0
 26 24  1  0
 27 28  2  0
 28 30  1  0
 28 29  1  0
 30 31  1  0
 32 33  1  0
 32 30  2  0
 34 32  1  0
 35 34  1  0
 36 34  2  0
 36 27  1  0
 37 36  1  0
M  END
$$$$
