-61.56205535
     RDKit          3D

 37 37  0  0  1  0  0  0  0  0999 V2000
   -0.2131   -4.5635   -1.1610 O   0  0  0  0  0  0  0  0  0  0  0  0
   -0.7531   -3.5104   -0.9602 C   0  0  0  0  0  0  0  0  0  0  0  0
   -1.8474   -3.1159   -1.6139 O   0  0  0  0  0  0  0  0  0  0  0  0
   -2.1289   -3.7975   -2.2445 H   0  0  0  0  0  0  0  0  0  0  0  0
   -0.2789   -2.4862    0.0541 C   0  0  2  0  0  0  0  0  0  0  0  0
    0.8039   -2.3690   -0.0558 H   0  0  0  0  0  0  0  0  0  0  0  0
   -0.4874   -2.8834    1.0549 H   0  0  0  0  0  0  0  0  0  0  0  0
   -0.9543   -1.2247   -0.0599 N   0  0  0  0  0  0  0  0  0  0  0  0
   -0.8077   -0.6579   -0.8924 H   0  0  0  0  0  0  0  0  0  0  0  0
   -1.7930   -0.7753    0.8866 C   0  0  0  0  0  0  0  0  0  0  0  0
   -2.0089   -1.3378    1.9394 O   0  0  0  0  0  0  0  0  0  0  0  0
   -2.4871    0.5410    0.4930 C   0  0  2  0  0  0  0  0  0  0  0  0
   -3.2547    0.7593    1.2349 H   0  0  0  0  0  0  0  0  0  0  0  0
   -2.9528    0.3923   -0.4875 H   0  0  0  0  0  0  0  0  0  0  0  0
   -1.5742    1.6608    0.4165 N   0  0  0  0  0  0  0  0  0  0  0  0
   -1.6221    2.3798    1.1220 H   0  0  0  0  0  0  0  0  0  0  0  0
   -0.7266    1.8635   -0.6007 C   0  0  0  0  0  0  0  0  0  0  0  0
   -0.5920    1.0969   -1.5406 O   0  0  0  0  0  0  0  0  0  0  0  0
    0.0757    3.1560   -0.4693 C   0  0  1  0  0  0  0  0  0  0  0  0
   -0.8218    4.2290   -0.0572 N   0  0  0  0  0  0  0  0  0  0  0  0
   -1.5132    4.4092   -0.7778 H   0  0  0  0  0  0  0  0  0  0  0  0
   -0.2984    5.0863    0.0869 H   0  0  0  0  0  0  0  0  0  0  0  0
    0.5625    3.3282   -1.4430 H   0  0  0  0  0  0  0  0  0  0  0  0
    1.1546    2.9720    0.6174 C   0  0  2  0  0  0  0  0  0  0  0  0
    0.6748    3.0848    1.5914 H   0  0  0  0  0  0  0  0  0  0  0  0
    1.8982    3.7660    0.5105 H   0  0  0  0  0  0  0  0  0  0  0  0
    1.8190    1.6265    0.5285 C   0  0  0  0  0  0  0  0  0  0  0  0
    2.6851    1.3345   -0.5176 C   0  0  0  0  0  0  0  0  0  0  0  0
    2.8900    2.0853   -1.2668 H   0  0  0  0  0  0  0  0  0  0  0  0
    3.2876    0.0930   -0.6069 C   0  0  0  0  0  0  0  0  0  0  0  0
    3.9556   -0.1225   -1.4277 H   0  0  0  0  0  0  0  0  0  0  0  0
    3.0403   -0.8704    0.3565 C   0  0  0  0  0  0  0  0  0  0  0  0
    3.5193   -1.8367    0.2921 H   0  0  0  0  0  0  0  0  0  0  0  0
    2.1803   -0.5877    1.4041 C   0  0  0  0  0  0  0  0  0  0  0  0
    1.9825   -1.3309    2.1622 H   0  0  0  0  0  0  0  0  0  0  0  0
    1.5672    0.6501    1.4831 C   0  0  0  0  0  0  0  0  0  0  0  0
    0.8918    0.8583    2.3006 H   0  0  0  0  0  0  0  0  0  0  0  0
  1  2  2  0
  2  5  1  0
  3  2  1  0
  4  3  1  0
  5  7  1  1
  6  5  1  0
  8  5  1  0
  8 10  1  0
  9  8  1  0
 10 11  2  0
 12 10  1  0
 12 13  1  1
 14 12  1  0
 15 12  1  0
 15 16  1  0
 17 19  1  0
 17 15  1  0
 18 17  2  0
 19 23  1  6
 19 20  1  0
 19 24  1  0
 20 22  1  0
 21 20  1  0
 24 25  1  1
 26 24  1  0
 27 24  1  0
 27 36  2  0
 28 27  1  0
 29 28  1  0
 30 28  2  0
 30 32  1  0
 31 30  1  0
 32 34  2  0
 33 32  1  0
 34 36  1  0
 34 35  1  0
 36 37  1  0
M  END
$$$$
