-61.56200597
     RDKit          3D

 37 37  0  0  1  0  0  0  0  0999 V2000
   -0.2340   -3.4374    1.8763 O   0  0  0  0  0  0  0  0  0  0  0  0
   -0.2533   -3.8530    0.7501 C   0  0  0  0  0  0  0  0  0  0  0  0
    0.4377   -4.9150    0.3423 O   0  0  0  0  0  0  0  0  0  0  0  0
    0.9564   -5.2925    1.0715 H   0  0  0  0  0  0  0  0  0  0  0  0
   -1.0818   -3.2536   -0.3672 C   0  0  2  0  0  0  0  0  0  0  0  0
   -1.8396   -3.9876   -0.6671 H   0  0  0  0  0  0  0  0  0  0  0  0
   -0.4479   -3.0410   -1.2336 H   0  0  0  0  0  0  0  0  0  0  0  0
   -1.6894   -2.0172    0.0552 N   0  0  0  0  0  0  0  0  0  0  0  0
   -1.9953   -1.9815    1.0168 H   0  0  0  0  0  0  0  0  0  0  0  0
   -1.4755   -0.8707   -0.6254 C   0  0  0  0  0  0  0  0  0  0  0  0
   -0.9146   -0.8294   -1.7003 O   0  0  0  0  0  0  0  0  0  0  0  0
   -2.0572    0.3800    0.0212 C   0  0  2  0  0  0  0  0  0  0  0  0
   -1.9400    0.3771    1.1085 H   0  0  0  0  0  0  0  0  0  0  0  0
   -3.1294    0.4267   -0.2131 H   0  0  0  0  0  0  0  0  0  0  0  0
   -1.3670    1.5239   -0.5222 N   0  0  0  0  0  0  0  0  0  0  0  0
   -0.8755    1.3229   -1.3854 H   0  0  0  0  0  0  0  0  0  0  0  0
   -1.0009    2.5712    0.2473 C   0  0  0  0  0  0  0  0  0  0  0  0
   -1.4535    2.7674    1.3582 O   0  0  0  0  0  0  0  0  0  0  0  0
    0.0328    3.5042   -0.3917 C   0  0  1  0  0  0  0  0  0  0  0  0
   -0.1765    4.8961   -0.0390 N   0  0  0  0  0  0  0  0  0  0  0  0
   -0.3005    4.9562    0.9688 H   0  0  0  0  0  0  0  0  0  0  0  0
   -1.0320    5.2399   -0.4633 H   0  0  0  0  0  0  0  0  0  0  0  0
   -0.0005    3.4083   -1.4818 H   0  0  0  0  0  0  0  0  0  0  0  0
    1.4201    3.0614    0.1273 C   0  0  2  0  0  0  0  0  0  0  0  0
    1.4694    3.3092    1.1891 H   0  0  0  0  0  0  0  0  0  0  0  0
    2.1781    3.6435   -0.3979 H   0  0  0  0  0  0  0  0  0  0  0  0
    1.6422    1.5890   -0.0652 C   0  0  0  0  0  0  0  0  0  0  0  0
    2.0705    1.0860   -1.2876 C   0  0  0  0  0  0  0  0  0  0  0  0
    2.2742    1.7683   -2.1009 H   0  0  0  0  0  0  0  0  0  0  0  0
    2.2433   -0.2744   -1.4699 C   0  0  0  0  0  0  0  0  0  0  0  0
    2.5771   -0.6510   -2.4251 H   0  0  0  0  0  0  0  0  0  0  0  0
    1.9847   -1.1520   -0.4317 C   0  0  0  0  0  0  0  0  0  0  0  0
    2.1243   -2.2143   -0.5742 H   0  0  0  0  0  0  0  0  0  0  0  0
    1.5478   -0.6642    0.7881 C   0  0  0  0  0  0  0  0  0  0  0  0
    1.3341   -1.3427    1.6015 H   0  0  0  0  0  0  0  0  0  0  0  0
    1.3798    0.6973    0.9683 C   0  0  0  0  0  0  0  0  0  0  0  0
    1.0374    1.0747    1.9214 H   0  0  0  0  0  0  0  0  0  0  0  0
  2  1  2  0
  3  2  1  0
  3  4  1  0
  5  8  1  0
  5  2  1  0
  5  6  1  6
  7  5  1  0
  8  9  1  0
 10 12  1  0
 10  8  1  0
 11 10  2  0
 12 13  1  1
 14 12  1  0
 15 12  1  0
 15 17  1  0
 16 15  1  0
 17 18  2  0
 19 23  1  6
 19 20  1  0
 19 24  1  0
 19 17  1  0
 20 21  1  0
 22 20  1  0
 24 25  1  1
 26 24  1  0
 27 24  1  0
 27 36  2  0
 28 27  1  0
 29 28  1  0
 30 28  2  0
 30 32  1  0
 31 30  1  0
 32 34  2  0
 33 32  1  0
 34 36  1  0
 34 35  1  0
 36 37  1  0
M  END
$$$$
