-61.56195666
     RDKit          3D

 37 37  0  0  1  0  0  0  0  0999 V2000
   -1.8468   -3.1789    1.8936 O   0  0  0  0  0  0  0  0  0  0  0  0
   -0.9322   -3.4046    1.1529 C   0  0  0  0  0  0  0  0  0  0  0  0
   -0.2577   -4.5594    1.1488 O   0  0  0  0  0  0  0  0  0  0  0  0
   -0.6246   -5.1702    1.8080 H   0  0  0  0  0  0  0  0  0  0  0  0
   -0.3824   -2.4442    0.1154 C   0  0  2  0  0  0  0  0  0  0  0  0
   -0.5493   -2.8741   -0.8783 H   0  0  0  0  0  0  0  0  0  0  0  0
    0.6947   -2.3286    0.2736 H   0  0  0  0  0  0  0  0  0  0  0  0
   -1.0567   -1.1777    0.1627 N   0  0  0  0  0  0  0  0  0  0  0  0
   -0.9785   -0.6114    1.0023 H   0  0  0  0  0  0  0  0  0  0  0  0
   -1.8661   -0.7632   -0.8260 C   0  0  0  0  0  0  0  0  0  0  0  0
   -2.0191   -1.3474   -1.8780 O   0  0  0  0  0  0  0  0  0  0  0  0
   -2.5837    0.5556   -0.4956 C   0  0  2  0  0  0  0  0  0  0  0  0
   -3.0198    0.4697    0.5042 H   0  0  0  0  0  0  0  0  0  0  0  0
   -3.3722    0.7181   -1.2304 H   0  0  0  0  0  0  0  0  0  0  0  0
   -1.6897    1.6971   -0.5063 N   0  0  0  0  0  0  0  0  0  0  0  0
   -1.6420    2.2433   -1.3503 H   0  0  0  0  0  0  0  0  0  0  0  0
   -0.8329    1.9593    0.4978 C   0  0  0  0  0  0  0  0  0  0  0  0
   -0.7524    1.2677    1.4992 O   0  0  0  0  0  0  0  0  0  0  0  0
    0.0234    3.2206    0.3202 C   0  0  1  0  0  0  0  0  0  0  0  0
    0.7571    3.5425    1.5275 N   0  0  0  0  0  0  0  0  0  0  0  0
    1.2505    2.7109    1.8414 H   0  0  0  0  0  0  0  0  0  0  0  0
    0.1104    3.7880    2.2701 H   0  0  0  0  0  0  0  0  0  0  0  0
   -0.6376    4.0667    0.0939 H   0  0  0  0  0  0  0  0  0  0  0  0
    1.0090    3.0372   -0.8584 C   0  0  2  0  0  0  0  0  0  0  0  0
    1.7480    3.8358   -0.7782 H   0  0  0  0  0  0  0  0  0  0  0  0
    0.4731    3.1549   -1.8022 H   0  0  0  0  0  0  0  0  0  0  0  0
    1.6897    1.6974   -0.8250 C   0  0  0  0  0  0  0  0  0  0  0  0
    2.7776    1.4785    0.0119 C   0  0  0  0  0  0  0  0  0  0  0  0
    3.1563    2.2920    0.6132 H   0  0  0  0  0  0  0  0  0  0  0  0
    3.3848    0.2368    0.0692 C   0  0  0  0  0  0  0  0  0  0  0  0
    4.2266    0.0809    0.7281 H   0  0  0  0  0  0  0  0  0  0  0  0
    2.9227   -0.8008   -0.7226 C   0  0  0  0  0  0  0  0  0  0  0  0
    3.4027   -1.7680   -0.6843 H   0  0  0  0  0  0  0  0  0  0  0  0
    1.8524   -0.5874   -1.5743 C   0  0  0  0  0  0  0  0  0  0  0  0
    1.4921   -1.3833   -2.2088 H   0  0  0  0  0  0  0  0  0  0  0  0
    1.2375    0.6509   -1.6190 C   0  0  0  0  0  0  0  0  0  0  0  0
    0.4046    0.8005   -2.2915 H   0  0  0  0  0  0  0  0  0  0  0  0
  2  1  2  0
  3  2  1  0
  3  4  1  0
  5  8  1  0
  5  7  1  1
  5  2  1  0
  6  5  1  0
  8  9  1  0
 10 12  1  0
 10  8  1  0
 11 10  2  0
 12 13  1  1
 14 12  1  0
 15 12  1  0
 15 17  1  0
 16 15  1  0
 17 18  2  0
 19 23  1  6
 19 17  1  0
 19 20  1  0
 20 21  1  0
 20 22  1  0
 24 27  1  0
 24 25  1  1
 24 19  1  0
 26 24  1  0
 27 28  2  0
 28 30  1  0
 28 29  1  0
 30 31  1  0
 32 33  1  0
 32 30  2  0
 34 32  1  0
 35 34  1  0
 36 34  2  0
 36 27  1  0
 37 36  1  0
M  END
$$$$
