-51.74020900
     RDKit          3D

 35 34  0  0  1  0  0  0  0  0999 V2000
    0.4917    1.0976   -0.0373 N   0  0  0  0  0  0  0  0  0  0  0  0
   -0.4273    0.9262   -0.4893 H   0  0  0  0  0  0  0  0  0  0  0  0
    0.8687    0.2636    1.0755 C   0  0  1  0  0  0  0  0  0  0  0  0
    1.4285    0.8676    1.8000 H   0  0  0  0  0  0  0  0  0  0  0  0
   -0.3708   -0.2911    1.8131 C   0  0  1  0  0  0  0  0  0  0  0  0
    1.8161   -0.8822    0.6703 C   0  0  0  0  0  0  0  0  0  0  0  0
   -0.1217   -0.3559    2.8733 H   0  0  0  0  0  0  0  0  0  0  0  0
   -1.1806    0.4324    1.7014 H   0  0  0  0  0  0  0  0  0  0  0  0
   -0.8493   -1.6785    1.3788 C   0  0  2  0  0  0  0  0  0  0  0  0
    2.4255   -1.5320    1.4962 O   0  0  0  0  0  0  0  0  0  0  0  0
   -1.5690   -2.0335    2.1223 H   0  0  0  0  0  0  0  0  0  0  0  0
   -0.0062   -2.3693    1.3921 H   0  0  0  0  0  0  0  0  0  0  0  0
   -1.5159   -1.7418    0.0023 C   0  0  2  0  0  0  0  0  0  0  0  0
   -1.6805   -2.7939   -0.2578 H   0  0  0  0  0  0  0  0  0  0  0  0
   -0.8892   -1.2860   -0.7619 H   0  0  0  0  0  0  0  0  0  0  0  0
   -2.7916   -1.0675   -0.0520 N   0  0  0  0  0  0  0  0  0  0  0  0
   -3.4856   -1.3638    0.6157 H   0  0  0  0  0  0  0  0  0  0  0  0
   -2.9434    0.1677   -0.6045 C   0  0  0  0  0  0  0  0  0  0  0  0
   -1.9663    0.7224   -1.2079 N   0  0  0  0  0  2  0  0  0  0  0  0
   -4.1984    0.7238   -0.4347 N   0  0  0  0  0  0  0  0  0  0  0  0
   -2.1744    1.6128   -1.6416 H   0  0  0  0  0  0  0  0  0  0  0  0
   -4.4202    1.5000   -1.0374 H   0  0  0  0  0  0  0  0  0  0  0  0
   -4.9715    0.1026   -0.2581 H   0  0  0  0  0  0  0  0  0  0  0  0
    1.8912   -1.0938   -0.6550 N   0  0  0  0  0  0  0  0  0  0  0  0
    2.7342   -2.1031   -1.2430 C   0  0  2  0  0  0  0  0  0  0  0  0
    1.3817   -0.4737   -1.2686 H   0  0  0  0  0  0  0  0  0  0  0  0
    3.2266   -2.6345   -0.4296 H   0  0  0  0  0  0  0  0  0  0  0  0
    3.4889   -1.6506   -1.8890 H   0  0  0  0  0  0  0  0  0  0  0  0
    2.1388   -2.8061   -1.8286 H   0  0  0  0  0  0  0  0  0  0  0  0
    1.1953    2.1327   -0.5442 C   0  0  0  0  0  0  0  0  0  0  0  0
    2.5398    2.4240    0.0932 C   0  0  1  0  0  0  0  0  0  0  0  0
    0.7627    2.7831   -1.4771 O   0  0  0  0  0  0  0  0  0  0  0  0
    3.0466    3.1812   -0.4983 H   0  0  0  0  0  0  0  0  0  0  0  0
    2.3978    2.8060    1.1027 H   0  0  0  0  0  0  0  0  0  0  0  0
    3.1525    1.5268    0.1415 H   0  0  0  0  0  0  0  0  0  0  0  0
  1  3  1  0
  2  1  1  0
  3  4  1  1
  3  5  1  0
  5  7  1  1
  6  3  1  0
  6 10  2  0
  8  5  1  0
  9 12  1  6
  9  5  1  0
  9 11  1  0
 13  9  1  0
 13 14  1  6
 15 13  1  0
 16 13  1  0
 16 17  1  0
 18 20  2  0
 18 16  1  0
 19 18  1  0
 20 23  1  0
 21 19  1  0
 22 20  1  0
 24  6  1  0
 25 24  1  0
 25 27  1  1
 26 24  1  0
 28 25  1  0
 29 25  1  0
 30  1  1  0
 30 31  1  0
 31 35  1  1
 31 34  1  0
 32 30  2  0
 33 31  1  0
M  RAD  1  19   2
M  END
$$$$
