-51.73800636
     RDKit          3D

 35 34  0  0  1  0  0  0  0  0999 V2000
    1.2115    1.1628   -1.0427 N   0  0  0  0  0  0  0  0  0  0  0  0
    1.6404    1.1576   -1.9598 H   0  0  0  0  0  0  0  0  0  0  0  0
    0.3532    0.0507   -0.7212 C   0  0  1  0  0  0  0  0  0  0  0  0
   -0.2616    0.3412    0.1330 H   0  0  0  0  0  0  0  0  0  0  0  0
   -0.5845   -0.3044   -1.8941 C   0  0  1  0  0  0  0  0  0  0  0  0
    1.1287   -1.1918   -0.2523 C   0  0  0  0  0  0  0  0  0  0  0  0
   -0.1828    0.1451   -2.8046 H   0  0  0  0  0  0  0  0  0  0  0  0
   -0.5916   -1.3875   -2.0353 H   0  0  0  0  0  0  0  0  0  0  0  0
   -2.0187    0.1818   -1.6690 C   0  0  2  0  0  0  0  0  0  0  0  0
    0.5464   -2.2352   -0.0094 O   0  0  0  0  0  0  0  0  0  0  0  0
   -2.5229    0.2904   -2.6302 H   0  0  0  0  0  0  0  0  0  0  0  0
   -2.0079    1.1577   -1.1835 H   0  0  0  0  0  0  0  0  0  0  0  0
   -2.8452   -0.7921   -0.8141 C   0  0  2  0  0  0  0  0  0  0  0  0
   -3.0471   -1.7019   -1.3853 H   0  0  0  0  0  0  0  0  0  0  0  0
   -3.7894   -0.3123   -0.5502 H   0  0  0  0  0  0  0  0  0  0  0  0
   -2.2146   -1.1978    0.4189 N   0  0  0  0  0  0  0  0  0  0  0  0
   -1.4234   -1.8240    0.3114 H   0  0  0  0  0  0  0  0  0  0  0  0
   -2.1233   -0.3165    1.4595 C   0  0  0  0  0  0  0  0  0  0  0  0
   -2.7797    0.7735    1.4523 N   0  0  0  0  0  2  0  0  0  0  0  0
   -1.2328   -0.7133    2.4574 N   0  0  0  0  0  0  0  0  0  0  0  0
   -2.6921    1.3116    2.3082 H   0  0  0  0  0  0  0  0  0  0  0  0
   -1.4260   -0.3507    3.3788 H   0  0  0  0  0  0  0  0  0  0  0  0
   -0.9745   -1.6886    2.4543 H   0  0  0  0  0  0  0  0  0  0  0  0
    2.4505   -1.0289   -0.1088 N   0  0  0  0  0  0  0  0  0  0  0  0
    3.3286   -2.0736    0.3579 C   0  0  2  0  0  0  0  0  0  0  0  0
    2.8522   -0.1252   -0.3115 H   0  0  0  0  0  0  0  0  0  0  0  0
    3.8100   -1.7823    1.2929 H   0  0  0  0  0  0  0  0  0  0  0  0
    4.0957   -2.2898   -0.3871 H   0  0  0  0  0  0  0  0  0  0  0  0
    2.7238   -2.9637    0.5236 H   0  0  0  0  0  0  0  0  0  0  0  0
    1.4597    2.2825   -0.3107 C   0  0  0  0  0  0  0  0  0  0  0  0
    0.7776    2.3782    1.0321 C   0  0  1  0  0  0  0  0  0  0  0  0
    2.2164    3.1286   -0.7391 O   0  0  0  0  0  0  0  0  0  0  0  0
   -0.3035    2.4069    0.9079 H   0  0  0  0  0  0  0  0  0  0  0  0
    1.0346    1.5279    1.6603 H   0  0  0  0  0  0  0  0  0  0  0  0
    1.1017    3.2954    1.5159 H   0  0  0  0  0  0  0  0  0  0  0  0
  1  3  1  0
  1 30  1  0
  2  1  1  0
  3  6  1  0
  3  4  1  1
  5  9  1  0
  5  3  1  0
  6 24  1  0
  6 10  2  0
  5  7  1  6
  8  5  1  0
  9 12  1  1
  9 13  1  0
 11  9  1  0
 13 15  1  1
 13 16  1  0
 14 13  1  0
 16 18  1  0
 17 16  1  0
 18 20  2  0
 19 18  1  0
 19 21  1  0
 20 22  1  0
 23 20  1  0
 24 25  1  0
 25 29  1  1
 25 27  1  0
 26 24  1  0
 28 25  1  0
 30 31  1  0
 31 35  1  1
 31 34  1  0
 32 30  2  0
 33 31  1  0
M  RAD  1  19   2
M  END
$$$$
