-51.73800048
     RDKit          3D

 35 34  0  0  1  0  0  0  0  0999 V2000
    1.3675    1.4358    0.0301 N   0  0  0  0  0  0  0  0  0  0  0  0
    2.2250    1.5577   -0.4992 H   0  0  0  0  0  0  0  0  0  0  0  0
    0.6156    0.2720   -0.3632 C   0  0  1  0  0  0  0  0  0  0  0  0
   -0.0664   -0.0127    0.4343 H   0  0  0  0  0  0  0  0  0  0  0  0
   -0.1475    0.5368   -1.6771 C   0  0  1  0  0  0  0  0  0  0  0  0
    1.6018   -0.8873   -0.6190 C   0  0  0  0  0  0  0  0  0  0  0  0
    0.5477    1.0357   -2.3549 H   0  0  0  0  0  0  0  0  0  0  0  0
   -0.4183   -0.4172   -2.1331 H   0  0  0  0  0  0  0  0  0  0  0  0
   -1.4000    1.4042   -1.5167 C   0  0  2  0  0  0  0  0  0  0  0  0
    2.7564   -0.6758   -0.9326 O   0  0  0  0  0  0  0  0  0  0  0  0
   -1.6059    1.8967   -2.4689 H   0  0  0  0  0  0  0  0  0  0  0  0
   -1.2078    2.1870   -0.7807 H   0  0  0  0  0  0  0  0  0  0  0  0
   -2.6725    0.6280   -1.1392 C   0  0  2  0  0  0  0  0  0  0  0  0
   -2.8123   -0.2035   -1.8350 H   0  0  0  0  0  0  0  0  0  0  0  0
   -3.5350    1.2935   -1.2445 H   0  0  0  0  0  0  0  0  0  0  0  0
   -2.7020    0.1051    0.2075 N   0  0  0  0  0  0  0  0  0  0  0  0
   -2.7541    0.8079    0.9300 H   0  0  0  0  0  0  0  0  0  0  0  0
   -2.1442   -1.0910    0.5852 C   0  0  0  0  0  0  0  0  0  0  0  0
   -1.8095   -2.0723   -0.1578 N   0  0  0  0  0  2  0  0  0  0  0  0
   -1.8815   -1.1888    1.9375 N   0  0  0  0  0  0  0  0  0  0  0  0
   -1.9995   -1.9394   -1.1437 H   0  0  0  0  0  0  0  0  0  0  0  0
   -1.6971   -2.1348    2.2347 H   0  0  0  0  0  0  0  0  0  0  0  0
   -2.4909   -0.6773    2.5564 H   0  0  0  0  0  0  0  0  0  0  0  0
    1.0552   -2.1032   -0.4813 N   0  0  0  0  0  0  0  0  0  0  0  0
    1.8053   -3.3114   -0.7276 C   0  0  2  0  0  0  0  0  0  0  0  0
    0.0624   -2.2065   -0.2546 H   0  0  0  0  0  0  0  0  0  0  0  0
    1.8137   -3.9407    0.1635 H   0  0  0  0  0  0  0  0  0  0  0  0
    2.8257   -3.0283   -0.9816 H   0  0  0  0  0  0  0  0  0  0  0  0
    1.3672   -3.8733   -1.5544 H   0  0  0  0  0  0  0  0  0  0  0  0
    1.2796    2.1811    1.1542 C   0  0  0  0  0  0  0  0  0  0  0  0
    0.1068    1.8978    2.0760 C   0  0  1  0  0  0  0  0  0  0  0  0
    2.0833    3.0600    1.3868 O   0  0  0  0  0  0  0  0  0  0  0  0
    0.1688    2.5791    2.9199 H   0  0  0  0  0  0  0  0  0  0  0  0
   -0.8335    2.0630    1.5560 H   0  0  0  0  0  0  0  0  0  0  0  0
    0.1417    0.8732    2.4396 H   0  0  0  0  0  0  0  0  0  0  0  0
  1 30  1  0
  2  1  1  0
  3  1  1  0
  3  4  1  1
  5  9  1  0
  5  3  1  0
  6 24  1  0
  6  3  1  0
  5  7  1  6
  8  5  1  0
  9 13  1  0
  9 12  1  1
 10  6  2  0
 11  9  1  0
 13 16  1  0
 13 14  1  6
 15 13  1  0
 16 18  1  0
 16 17  1  0
 18 20  2  0
 19 18  1  0
 20 22  1  0
 20 23  1  0
 21 19  1  0
 24 26  1  0
 25 24  1  0
 25 27  1  1
 28 25  1  0
 29 25  1  0
 30 32  2  0
 30 31  1  0
 31 35  1  1
 31 33  1  0
 34 31  1  0
M  RAD  1  19   2
M  END
$$$$
