-51.73795674
     RDKit          3D

 35 34  0  0  1  0  0  0  0  0999 V2000
    1.7843    1.6361    0.2211 N   0  0  0  0  0  0  0  0  0  0  0  0
    2.1652    1.6544   -0.7210 H   0  0  0  0  0  0  0  0  0  0  0  0
    0.9769    0.4748    0.4943 C   0  0  1  0  0  0  0  0  0  0  0  0
    1.2285    0.0656    1.4805 H   0  0  0  0  0  0  0  0  0  0  0  0
   -0.5259    0.8221    0.4816 C   0  0  1  0  0  0  0  0  0  0  0  0
    1.3613   -0.5893   -0.5544 C   0  0  0  0  0  0  0  0  0  0  0  0
   -1.0806    0.0153    0.9577 H   0  0  0  0  0  0  0  0  0  0  0  0
   -0.6547    1.7205    1.0874 H   0  0  0  0  0  0  0  0  0  0  0  0
   -1.0983    1.0764   -0.9175 C   0  0  2  0  0  0  0  0  0  0  0  0
    2.1413   -0.3255   -1.4513 O   0  0  0  0  0  0  0  0  0  0  0  0
   -0.3050    1.4007   -1.5910 H   0  0  0  0  0  0  0  0  0  0  0  0
   -1.8364    1.8802   -0.8667 H   0  0  0  0  0  0  0  0  0  0  0  0
   -1.7760   -0.1628   -1.5136 C   0  0  2  0  0  0  0  0  0  0  0  0
   -1.0748   -0.9923   -1.5632 H   0  0  0  0  0  0  0  0  0  0  0  0
   -2.1175    0.0669   -2.5276 H   0  0  0  0  0  0  0  0  0  0  0  0
   -2.9161   -0.6003   -0.7412 N   0  0  0  0  0  0  0  0  0  0  0  0
   -3.7905   -0.1321   -0.9075 H   0  0  0  0  0  0  0  0  0  0  0  0
   -2.9074   -1.6200    0.1522 C   0  0  0  0  0  0  0  0  0  0  0  0
   -1.8161   -2.1970    0.4918 N   0  0  0  0  0  2  0  0  0  0  0  0
   -4.1573   -1.9932    0.6058 N   0  0  0  0  0  0  0  0  0  0  0  0
   -1.9522   -2.9722    1.1305 H   0  0  0  0  0  0  0  0  0  0  0  0
   -4.1924   -2.5643    1.4336 H   0  0  0  0  0  0  0  0  0  0  0  0
   -4.9281   -1.3558    0.4962 H   0  0  0  0  0  0  0  0  0  0  0  0
    0.8281   -1.8010   -0.3446 N   0  0  0  0  0  0  0  0  0  0  0  0
    1.1040   -2.8976   -1.2451 C   0  0  2  0  0  0  0  0  0  0  0  0
   -0.0267   -1.9038    0.2138 H   0  0  0  0  0  0  0  0  0  0  0  0
    1.8657   -2.5783   -1.9549 H   0  0  0  0  0  0  0  0  0  0  0  0
    0.2028   -3.1933   -1.7856 H   0  0  0  0  0  0  0  0  0  0  0  0
    1.4714   -3.7550   -0.6796 H   0  0  0  0  0  0  0  0  0  0  0  0
    2.2759    2.5578    1.0760 C   0  0  0  0  0  0  0  0  0  0  0  0
    1.8822    2.4076    2.5329 C   0  0  1  0  0  0  0  0  0  0  0  0
    2.9904    3.4586    0.6860 O   0  0  0  0  0  0  0  0  0  0  0  0
    2.2931    3.2458    3.0882 H   0  0  0  0  0  0  0  0  0  0  0  0
    0.8026    2.3906    2.6527 H   0  0  0  0  0  0  0  0  0  0  0  0
    2.2947    1.4829    2.9323 H   0  0  0  0  0  0  0  0  0  0  0  0
  1  3  1  0
  1 30  1  0
  2  1  1  0
  3  4  1  1
  5  3  1  0
  5  7  1  1
  5  8  1  0
  6 24  1  0
  6  3  1  0
  9 12  1  1
  9  5  1  0
 10  6  2  0
 11  9  1  0
 13  9  1  0
 13 16  1  0
 13 14  1  6
 15 13  1  0
 16 18  1  0
 17 16  1  0
 18 19  1  0
 18 20  2  0
 19 21  1  0
 20 22  1  0
 23 20  1  0
 24 26  1  0
 25 29  1  1
 25 24  1  0
 27 25  1  0
 28 25  1  0
 30 31  1  0
 31 34  1  6
 31 35  1  0
 31 33  1  0
 32 30  2  0
M  RAD  1  19   2
M  END
$$$$
