-51.73728554
     RDKit          3D

 35 34  0  0  1  0  0  0  0  0999 V2000
    0.5666    0.6843   -0.2208 N   0  0  0  0  0  0  0  0  0  0  0  0
   -0.1614    0.3268   -0.8440 H   0  0  0  0  0  0  0  0  0  0  0  0
    1.0338   -0.2505    0.7723 C   0  0  1  0  0  0  0  0  0  0  0  0
    1.6136    0.2788    1.5342 H   0  0  0  0  0  0  0  0  0  0  0  0
   -0.1574   -0.9469    1.4542 C   0  0  1  0  0  0  0  0  0  0  0  0
    1.9661   -1.3317    0.1931 C   0  0  0  0  0  0  0  0  0  0  0  0
   -0.7468   -1.4491    0.6836 H   0  0  0  0  0  0  0  0  0  0  0  0
    0.2513   -1.7170    2.1083 H   0  0  0  0  0  0  0  0  0  0  0  0
   -1.0481    0.0238    2.2478 C   0  0  2  0  0  0  0  0  0  0  0  0
    2.4143   -2.2110    0.8979 O   0  0  0  0  0  0  0  0  0  0  0  0
   -0.5987    1.0197    2.2573 H   0  0  0  0  0  0  0  0  0  0  0  0
   -1.1287   -0.3057    3.2842 H   0  0  0  0  0  0  0  0  0  0  0  0
   -2.4724    0.1493    1.6834 C   0  0  2  0  0  0  0  0  0  0  0  0
   -3.0576    0.8061    2.3370 H   0  0  0  0  0  0  0  0  0  0  0  0
   -2.9509   -0.8328    1.6764 H   0  0  0  0  0  0  0  0  0  0  0  0
   -2.5070    0.6854    0.3451 N   0  0  0  0  0  0  0  0  0  0  0  0
   -2.0125    1.5607    0.2380 H   0  0  0  0  0  0  0  0  0  0  0  0
   -2.5429   -0.1080   -0.7859 C   0  0  0  0  0  0  0  0  0  0  0  0
   -3.0884   -1.2431   -0.9330 N   0  0  0  0  0  2  0  0  0  0  0  0
   -1.8515    0.4228   -1.8657 N   0  0  0  0  0  0  0  0  0  0  0  0
   -3.5430   -1.6136   -0.1073 H   0  0  0  0  0  0  0  0  0  0  0  0
   -2.1262    0.0125   -2.7454 H   0  0  0  0  0  0  0  0  0  0  0  0
   -1.7452    1.4298   -1.8879 H   0  0  0  0  0  0  0  0  0  0  0  0
    2.2346   -1.2076   -1.1174 N   0  0  0  0  0  0  0  0  0  0  0  0
    3.0726   -2.1376   -1.8332 C   0  0  2  0  0  0  0  0  0  0  0  0
    1.8268   -0.4408   -1.6305 H   0  0  0  0  0  0  0  0  0  0  0  0
    3.9344   -1.6259   -2.2651 H   0  0  0  0  0  0  0  0  0  0  0  0
    2.5096   -2.6275   -2.6293 H   0  0  0  0  0  0  0  0  0  0  0  0
    3.4152   -2.8853   -1.1197 H   0  0  0  0  0  0  0  0  0  0  0  0
    0.6504    2.0330   -0.2185 C   0  0  0  0  0  0  0  0  0  0  0  0
    1.6900    2.6647    0.6769 C   0  0  1  0  0  0  0  0  0  0  0  0
   -0.0748    2.6887   -0.9493 O   0  0  0  0  0  0  0  0  0  0  0  0
    1.7768    3.7158    0.4158 H   0  0  0  0  0  0  0  0  0  0  0  0
    1.3919    2.5913    1.7213 H   0  0  0  0  0  0  0  0  0  0  0  0
    2.6533    2.1766    0.5506 H   0  0  0  0  0  0  0  0  0  0  0  0
  1 30  1  0
  1  3  1  0
  2  1  1  0
  3  5  1  0
  3  4  1  1
  5  8  1  1
  5  9  1  0
  6  3  1  0
  6 10  2  0
  7  5  1  0
  9 11  1  1
  9 12  1  0
 13  9  1  0
 13 14  1  1
 15 13  1  0
 16 13  1  0
 17 16  1  0
 18 16  1  0
 19 18  1  0
 19 21  1  0
 20 18  2  0
 22 20  1  0
 23 20  1  0
 24  6  1  0
 25 29  1  1
 25 24  1  0
 26 24  1  0
 27 25  1  0
 28 25  1  0
 30 31  1  0
 31 34  1  1
 32 30  2  0
 33 31  1  0
 35 31  1  0
M  RAD  1  19   2
M  END
$$$$
