-51.73669872
     RDKit          3D

 35 34  0  0  1  0  0  0  0  0999 V2000
    0.4076   -0.1879   -0.7585 N   0  0  0  0  0  0  0  0  0  0  0  0
   -0.0043   -0.9133   -1.3312 H   0  0  0  0  0  0  0  0  0  0  0  0
    0.8266   -0.6017    0.5573 C   0  0  1  0  0  0  0  0  0  0  0  0
    0.7703    0.2507    1.2409 H   0  0  0  0  0  0  0  0  0  0  0  0
   -0.0641   -1.7142    1.1239 C   0  0  1  0  0  0  0  0  0  0  0  0
    2.2964   -1.0785    0.5824 C   0  0  0  0  0  0  0  0  0  0  0  0
   -0.1951   -2.4923    0.3669 H   0  0  0  0  0  0  0  0  0  0  0  0
    0.4959   -2.1520    1.9528 H   0  0  0  0  0  0  0  0  0  0  0  0
   -1.4266   -1.2509    1.6460 C   0  0  2  0  0  0  0  0  0  0  0  0
    2.7760   -1.5954    1.5686 O   0  0  0  0  0  0  0  0  0  0  0  0
   -1.3444   -0.2784    2.1289 H   0  0  0  0  0  0  0  0  0  0  0  0
   -1.7625   -1.9703    2.3945 H   0  0  0  0  0  0  0  0  0  0  0  0
   -2.5413   -1.1497    0.6006 C   0  0  2  0  0  0  0  0  0  0  0  0
   -3.4878   -1.0315    1.1435 H   0  0  0  0  0  0  0  0  0  0  0  0
   -2.5863   -2.0700    0.0130 H   0  0  0  0  0  0  0  0  0  0  0  0
   -2.3648   -0.0428   -0.3168 N   0  0  0  0  0  0  0  0  0  0  0  0
   -2.6119   -0.2193   -1.2780 H   0  0  0  0  0  0  0  0  0  0  0  0
   -2.6082    1.2435    0.0938 C   0  0  0  0  0  0  0  0  0  0  0  0
   -2.6373    1.5216    1.3352 N   0  0  0  0  0  2  0  0  0  0  0  0
   -2.8173    2.1327   -0.9504 N   0  0  0  0  0  0  0  0  0  0  0  0
   -2.8078    2.5033    1.5289 H   0  0  0  0  0  0  0  0  0  0  0  0
   -2.7329    3.1074   -0.7027 H   0  0  0  0  0  0  0  0  0  0  0  0
   -2.3559    1.9107   -1.8223 H   0  0  0  0  0  0  0  0  0  0  0  0
    2.9845   -0.8528   -0.5516 N   0  0  0  0  0  0  0  0  0  0  0  0
    4.3713   -1.2159   -0.7089 C   0  0  2  0  0  0  0  0  0  0  0  0
    2.5105   -0.4295   -1.3353 H   0  0  0  0  0  0  0  0  0  0  0  0
    4.9779   -0.3347   -0.9247 H   0  0  0  0  0  0  0  0  0  0  0  0
    4.4916   -1.9396   -1.5170 H   0  0  0  0  0  0  0  0  0  0  0  0
    4.7004   -1.6618    0.2283 H   0  0  0  0  0  0  0  0  0  0  0  0
    0.2262    1.0658   -1.2279 C   0  0  0  0  0  0  0  0  0  0  0  0
    0.7317    2.1937   -0.3628 C   0  0  1  0  0  0  0  0  0  0  0  0
   -0.2975    1.2464   -2.3140 O   0  0  0  0  0  0  0  0  0  0  0  0
    0.0937    2.2858    0.5151 H   0  0  0  0  0  0  0  0  0  0  0  0
    1.7537    2.0143   -0.0388 H   0  0  0  0  0  0  0  0  0  0  0  0
    0.6869    3.1194   -0.9304 H   0  0  0  0  0  0  0  0  0  0  0  0
  1  3  1  0
  2  1  1  0
  3  6  1  0
  3  5  1  0
  3  4  1  1
  5  9  1  0
  5  8  1  1
  6 10  2  0
  7  5  1  0
  9 11  1  1
  9 12  1  0
 13 14  1  1
 13  9  1  0
 15 13  1  0
 16 18  1  0
 16 13  1  0
 17 16  1  0
 18 19  1  0
 19 21  1  0
 20 22  1  0
 20 18  2  0
 23 20  1  0
 24  6  1  0
 25 24  1  0
 25 29  1  1
 26 24  1  0
 27 25  1  0
 28 25  1  0
 30  1  1  0
 30 31  1  0
 31 34  1  1
 31 33  1  0
 32 30  2  0
 35 31  1  0
M  RAD  1  19   2
M  END
$$$$
