 energy: -36.078169236418 gnorm: 0.000050006701 xtb: 6.5.1 (9af7eec)
     RDKit          3D

 11 10  0  0  0  0  0  0  0  0999 V2000
    0.8191   -0.2369   -1.3227 O   0  0  0  0  0  0  0  0  0  0  0  0
    1.2359    0.6436   -0.1303 S   0  0  1  0  0  0  0  0  0  0  0  0
    0.1855    0.6938    0.8366 O   0  0  0  0  0  0  0  0  0  0  0  0
    2.5320    0.3056    0.2887 O   0  0  0  0  0  0  0  0  0  0  0  0
    1.2584    2.1100   -0.7898 O   0  0  0  0  0  0  0  0  0  0  0  0
   -0.2167    2.6741   -1.0935 S   0  0  1  0  0  0  0  0  0  0  0  0
   -0.7353    2.9907    0.3212 O   0  0  0  0  0  0  0  0  0  0  0  0
   -0.1140    3.8550   -1.8449 O   0  0  0  0  0  0  0  0  0  0  0  0
   -0.9271    1.5627   -1.6419 O   0  0  0  0  0  0  0  0  0  0  0  0
   -0.0222    0.1279   -1.6812 H   0  0  0  0  0  0  0  0  0  0  0  0
   -0.6493    2.1705    0.8591 H   0  0  0  0  0  0  0  0  0  0  0  0
  1 10  1  0
  1  2  1  0
  2  5  1  0
  2  4  1  1
  2  3  1  0
  5  6  1  0
  6  9  1  6
  6  8  1  0
  6  7  1  0
  7 11  1  0
M  END
$$$$
