 energy: -50.006055906622 gnorm: 0.000044452487 xtb: 6.5.1 (9af7eec)
     RDKit          3D

 33 34  0  0  0  0  0  0  0  0999 V2000
    1.6924    1.7706   -2.7302 N   0  0  0  0  0  0  0  0  0  0  0  0
    0.6134    1.1994   -3.3493 C   0  0  0  0  0  0  0  0  0  0  0  0
    0.1281    0.1694   -2.5955 C   0  0  2  0  0  0  0  0  0  0  0  0
    0.9562    0.0950   -1.4334 C   0  0  0  0  0  0  0  0  0  0  0  0
    0.9457   -0.7400   -0.3126 C   0  0  0  0  0  0  0  0  0  0  0  0
    1.9136   -0.5488    0.6527 C   0  0  0  0  0  0  0  0  0  0  0  0
    2.8838    0.4632    0.5101 C   0  0  0  0  0  0  0  0  0  0  0  0
    2.9000    1.3006   -0.5791 C   0  0  0  0  0  0  0  0  0  0  0  0
    1.9260    1.1146   -1.5537 C   0  0  0  0  0  0  0  0  0  0  0  0
    2.2085    2.5634   -3.0699 H   0  0  0  0  0  0  0  0  0  0  0  0
    0.2603    1.5749   -4.2909 H   0  0  0  0  0  0  0  0  0  0  0  0
    0.1936   -1.5074   -0.2252 H   0  0  0  0  0  0  0  0  0  0  0  0
    3.6156    0.5626    1.2957 H   0  0  0  0  0  0  0  0  0  0  0  0
    3.6439    2.0778   -0.6708 H   0  0  0  0  0  0  0  0  0  0  0  0
    2.0310   -1.2945    1.7942 O   0  0  0  0  0  0  0  0  0  0  0  0
    1.0460   -2.2635    2.0588 C   0  0  2  0  0  0  0  0  0  0  0  0
    1.3162   -2.7037    3.0174 H   0  0  0  0  0  0  0  0  0  0  0  0
    1.0275   -3.0465    1.2943 H   0  0  0  0  0  0  0  0  0  0  0  0
    0.0513   -1.8124    2.1348 H   0  0  0  0  0  0  0  0  0  0  0  0
   -0.9856   -0.7685   -2.9241 C   0  0  2  0  0  0  0  0  0  0  0  0
   -0.4675   -1.9939   -3.7023 C   0  0  2  0  0  0  0  0  0  0  0  0
    0.6801   -2.6028   -3.0713 N   0  0  0  0  0  0  0  0  0  0  0  0
    0.5761   -3.5953   -2.1560 C   0  0  0  0  0  0  0  0  0  0  0  0
    1.9103   -3.9869   -1.5496 C   0  0  2  0  0  0  0  0  0  0  0  0
   -1.7435   -0.2680   -3.5281 H   0  0  0  0  0  0  0  0  0  0  0  0
   -1.4498   -1.1144   -1.9998 H   0  0  0  0  0  0  0  0  0  0  0  0
   -0.1821   -1.6976   -4.7154 H   0  0  0  0  0  0  0  0  0  0  0  0
   -1.2492   -2.7546   -3.7518 H   0  0  0  0  0  0  0  0  0  0  0  0
    1.5473   -2.0929   -3.1288 H   0  0  0  0  0  0  0  0  0  0  0  0
   -0.4723   -4.1383   -1.8812 O   0  0  0  0  0  0  0  0  0  0  0  0
    1.7615   -4.7958   -0.8399 H   0  0  0  0  0  0  0  0  0  0  0  0
    2.3585   -3.1338   -1.0434 H   0  0  0  0  0  0  0  0  0  0  0  0
    2.5870   -4.3209   -2.3331 H   0  0  0  0  0  0  0  0  0  0  0  0
  1  2  1  0
  1 10  1  0
  9  1  1  0
  2 11  1  0
  3  2  1  6
  3 20  1  0
  3  4  1  0
  4  5  1  0
  4  9  1  0
  5 12  1  0
  5  6  1  0
  6  7  1  0
  6 15  1  0
  7  8  1  0
  7 13  1  0
  8  9  1  0
  8 14  1  0
 15 16  1  0
 16 18  1  6
 16 19  1  0
 16 17  1  0
 20 25  1  6
 20 26  1  0
 20 21  1  0
 21 27  1  6
 21 22  1  0
 21 28  1  0
 22 29  1  0
 22 23  1  0
 23 30  1  0
 23 24  1  0
 24 32  1  1
 24 31  1  0
 24 33  1  0
M  END
$$$$
