 energy: -50.004396309299 gnorm: 0.000042812367 xtb: 6.5.1 (9af7eec)
     RDKit          3D

 33 34  0  0  0  0  0  0  0  0999 V2000
    2.9734    0.8994   -2.6583 N   0  0  0  0  0  0  0  0  0  0  0  0
    1.8784    0.4540   -3.3489 C   0  0  0  0  0  0  0  0  0  0  0  0
    0.9074    0.0522   -2.4792 C   0  0  0  0  0  0  0  0  0  0  0  0
    1.4295    0.2540   -1.1643 C   0  0  0  0  0  0  0  0  0  0  0  0
    0.9010    0.0252    0.1083 C   0  0  0  0  0  0  0  0  0  0  0  0
    1.6903    0.3226    1.2014 C   0  0  0  0  0  0  0  0  0  0  0  0
    2.9846    0.8535    1.0340 C   0  0  0  0  0  0  0  0  0  0  0  0
    3.5135    1.0914   -0.2121 C   0  0  0  0  0  0  0  0  0  0  0  0
    2.7273    0.7862   -1.3172 C   0  0  0  0  0  0  0  0  0  0  0  0
    3.8183    1.2554   -3.0700 H   0  0  0  0  0  0  0  0  0  0  0  0
    1.8683    0.4622   -4.4226 H   0  0  0  0  0  0  0  0  0  0  0  0
   -0.0900   -0.3840    0.2152 H   0  0  0  0  0  0  0  0  0  0  0  0
    3.5531    1.0678    1.9251 H   0  0  0  0  0  0  0  0  0  0  0  0
    4.5072    1.4993   -0.3253 H   0  0  0  0  0  0  0  0  0  0  0  0
    1.3111    0.1354    2.5017 O   0  0  0  0  0  0  0  0  0  0  0  0
    0.0210   -0.3754    2.7432 C   0  0  2  0  0  0  0  0  0  0  0  0
   -0.0547   -0.4857    3.8240 H   0  0  0  0  0  0  0  0  0  0  0  0
   -0.1311   -1.3470    2.2645 H   0  0  0  0  0  0  0  0  0  0  0  0
   -0.7531    0.3157    2.3941 H   0  0  0  0  0  0  0  0  0  0  0  0
   -0.4358   -0.5235   -2.7773 C   0  0  2  0  0  0  0  0  0  0  0  0
   -0.4894   -2.0063   -2.3669 C   0  0  2  0  0  0  0  0  0  0  0  0
   -1.8417   -2.4791   -2.1786 N   0  0  0  0  0  0  0  0  0  0  0  0
   -2.4389   -2.4789   -0.9637 C   0  0  0  0  0  0  0  0  0  0  0  0
   -3.8868   -2.9250   -0.9995 C   0  0  2  0  0  0  0  0  0  0  0  0
   -0.6736   -0.4123   -3.8372 H   0  0  0  0  0  0  0  0  0  0  0  0
   -1.1888    0.0142   -2.1946 H   0  0  0  0  0  0  0  0  0  0  0  0
    0.0187   -2.1285   -1.4087 H   0  0  0  0  0  0  0  0  0  0  0  0
    0.0095   -2.6274   -3.1148 H   0  0  0  0  0  0  0  0  0  0  0  0
   -2.3996   -2.6509   -2.9996 H   0  0  0  0  0  0  0  0  0  0  0  0
   -1.8593   -2.1691    0.0560 O   0  0  0  0  0  0  0  0  0  0  0  0
   -3.9660   -3.9084   -1.4573 H   0  0  0  0  0  0  0  0  0  0  0  0
   -4.4798   -2.2196   -1.5781 H   0  0  0  0  0  0  0  0  0  0  0  0
   -4.2739   -2.9676    0.0142 H   0  0  0  0  0  0  0  0  0  0  0  0
  1  2  1  0
  1 10  1  0
  9  1  1  0
  2 11  1  0
  3  2  1  0
  3 20  1  0
  3  4  1  0
  4  5  1  0
  4  9  1  0
  5 12  1  0
  5  6  1  0
  6  7  1  0
  6 15  1  0
  7  8  1  0
  7 13  1  0
  8  9  1  0
  8 14  1  0
 15 16  1  0
 16 18  1  6
 16 19  1  0
 16 17  1  0
 20 25  1  6
 20 26  1  0
 20 21  1  0
 21 27  1  1
 21 22  1  0
 21 28  1  0
 22 29  1  0
 22 23  1  0
 23 30  1  0
 23 24  1  0
 24 32  1  6
 24 31  1  0
 24 33  1  0
M  END
$$$$
