-55.58825490
     RDKit          3D

 36 37  0  0  1  0  0  0  0  0999 V2000
   -1.7251    1.2849   -0.1792 N   0  0  0  0  0  0  0  0  0  0  0  0
   -1.6664   -0.1382    0.0153 C   0  0  2  0  0  0  0  0  0  0  0  0
   -3.0880   -0.6355    0.2827 C   0  0  0  0  0  0  0  0  0  0  0  0
   -3.9092    0.0637    0.8396 O   0  0  0  0  0  0  0  0  0  0  0  0
   -0.8091   -0.4728    1.2685 C   0  0  1  0  0  0  0  0  0  0  0  0
   -2.3500    1.7629    0.4603 H   0  0  0  0  0  0  0  0  0  0  0  0
   -1.2380   -0.6123   -0.8678 H   0  0  0  0  0  0  0  0  0  0  0  0
   -1.2906   -0.0161    2.1352 H   0  0  0  0  0  0  0  0  0  0  0  0
   -0.7840   -1.5536    1.4152 H   0  0  0  0  0  0  0  0  0  0  0  0
   -0.9775    2.0743   -0.9825 C   0  0  0  0  0  0  0  0  0  0  0  0
   -1.0430    3.2840   -0.8989 O   0  0  0  0  0  0  0  0  0  0  0  0
   -3.3735   -1.9045   -0.0760 N   0  0  0  0  0  0  0  0  0  0  0  0
   -4.3266   -2.1838    0.1091 H   0  0  0  0  0  0  0  0  0  0  0  0
   -2.5455   -2.8290   -0.8126 C   0  0  1  0  0  0  0  0  0  0  0  0
   -1.5630   -2.9267   -0.3505 H   0  0  0  0  0  0  0  0  0  0  0  0
   -3.0229   -3.8058   -0.8077 H   0  0  0  0  0  0  0  0  0  0  0  0
   -2.4159   -2.5136   -1.8523 H   0  0  0  0  0  0  0  0  0  0  0  0
   -0.1082    1.3756   -2.0080 C   0  0  2  0  0  0  0  0  0  0  0  0
   -0.7300    0.7898   -2.6823 H   0  0  0  0  0  0  0  0  0  0  0  0
    0.6185    0.7219   -1.5334 H   0  0  0  0  0  0  0  0  0  0  0  0
    0.4159    2.1337   -2.5829 H   0  0  0  0  0  0  0  0  0  0  0  0
    0.5707    0.0648    1.1082 C   0  0  0  0  0  0  0  0  0  0  0  0
    1.0056    1.3108    1.4592 C   0  0  0  0  0  0  0  0  0  0  0  0
    1.6665   -0.5792    0.4540 C   0  0  0  0  0  0  0  0  0  0  0  0
    0.4730    2.0959    1.9596 H   0  0  0  0  0  0  0  0  0  0  0  0
    2.7406    0.3459    0.4571 C   0  0  0  0  0  0  0  0  0  0  0  0
    1.8466   -1.8315   -0.1341 C   0  0  0  0  0  0  0  0  0  0  0  0
    2.8447    2.3187    1.2095 H   0  0  0  0  0  0  0  0  0  0  0  0
    3.0672   -2.1281   -0.6964 C   0  0  0  0  0  0  0  0  0  0  0  0
    1.0443   -2.5556   -0.1464 H   0  0  0  0  0  0  0  0  0  0  0  0
    2.3068    1.4794    1.0791 N   0  0  0  0  0  0  0  0  0  0  0  0
    3.9708    0.0387   -0.1102 C   0  0  0  0  0  0  0  0  0  0  0  0
    4.1169   -1.2050   -0.6853 C   0  0  0  0  0  0  0  0  0  0  0  0
    4.7813    0.7522   -0.1008 H   0  0  0  0  0  0  0  0  0  0  0  0
    5.0593   -1.4761   -1.1372 H   0  0  0  0  0  0  0  0  0  0  0  0
    3.2242   -3.0923   -1.1573 H   0  0  0  0  0  0  0  0  0  0  0  0
  1  2  1  0
  1  6  1  0
  2  7  1  6
  2  3  1  0
  2  5  1  0
  3  4  2  0
  5  9  1  1
  5  8  1  0
 10 11  2  0
 10  1  1  0
 12 13  1  0
 12  3  1  0
 14 16  1  6
 14 15  1  0
 14 12  1  0
 17 14  1  0
 18 20  1  1
 18 10  1  0
 19 18  1  0
 21 18  1  0
 22  5  1  0
 22 23  2  0
 23 25  1  0
 24 26  1  0
 24 22  1  0
 26 31  1  0
 27 24  2  0
 29 33  2  0
 29 27  1  0
 30 27  1  0
 31 28  1  0
 31 23  1  0
 32 34  1  0
 32 26  2  0
 33 32  1  0
 35 33  1  0
 36 29  1  0
M  END
$$$$
