-55.58514791
     RDKit          3D

 36 37  0  0  1  0  0  0  0  0999 V2000
   -1.3192    1.0534   -0.2555 N   0  0  0  0  0  0  0  0  0  0  0  0
   -1.2688   -0.3829   -0.1615 C   0  0  2  0  0  0  0  0  0  0  0  0
   -2.6325   -1.0784   -0.2712 C   0  0  0  0  0  0  0  0  0  0  0  0
   -2.7322   -2.1370   -0.8618 O   0  0  0  0  0  0  0  0  0  0  0  0
   -0.5934   -0.8019    1.1596 C   0  0  1  0  0  0  0  0  0  0  0  0
   -1.0418    1.5762    0.5640 H   0  0  0  0  0  0  0  0  0  0  0  0
   -0.6670   -0.7865   -0.9867 H   0  0  0  0  0  0  0  0  0  0  0  0
   -1.1900   -0.4616    2.0085 H   0  0  0  0  0  0  0  0  0  0  0  0
   -0.5507   -1.8923    1.1854 H   0  0  0  0  0  0  0  0  0  0  0  0
   -1.6065    1.8028   -1.3463 C   0  0  0  0  0  0  0  0  0  0  0  0
   -1.6174    3.0155   -1.2720 O   0  0  0  0  0  0  0  0  0  0  0  0
   -3.7075   -0.5284    0.3288 N   0  0  0  0  0  0  0  0  0  0  0  0
   -4.5579   -1.0529    0.1742 H   0  0  0  0  0  0  0  0  0  0  0  0
   -3.8430    0.7143    1.0516 C   0  0  1  0  0  0  0  0  0  0  0  0
   -3.0350    0.8359    1.7715 H   0  0  0  0  0  0  0  0  0  0  0  0
   -3.8468    1.5769    0.3802 H   0  0  0  0  0  0  0  0  0  0  0  0
   -4.7847    0.6946    1.5966 H   0  0  0  0  0  0  0  0  0  0  0  0
   -1.9087    1.0385   -2.6113 C   0  0  2  0  0  0  0  0  0  0  0  0
   -2.2361    1.7358   -3.3770 H   0  0  0  0  0  0  0  0  0  0  0  0
   -2.6776    0.2886   -2.4432 H   0  0  0  0  0  0  0  0  0  0  0  0
   -1.0072    0.5327   -2.9527 H   0  0  0  0  0  0  0  0  0  0  0  0
    0.7818   -0.2291    1.2403 C   0  0  0  0  0  0  0  0  0  0  0  0
    1.1894    0.8541    1.9643 C   0  0  0  0  0  0  0  0  0  0  0  0
    1.9212   -0.6765    0.5024 C   0  0  0  0  0  0  0  0  0  0  0  0
    0.6327    1.4641    2.6517 H   0  0  0  0  0  0  0  0  0  0  0  0
    2.9899    0.1868    0.8413 C   0  0  0  0  0  0  0  0  0  0  0  0
    2.1395   -1.7187   -0.3989 C   0  0  0  0  0  0  0  0  0  0  0  0
    3.0484    1.8475    2.1487 H   0  0  0  0  0  0  0  0  0  0  0  0
    3.3980   -1.8692   -0.9350 C   0  0  0  0  0  0  0  0  0  0  0  0
    1.3392   -2.3931   -0.6653 H   0  0  0  0  0  0  0  0  0  0  0  0
    2.5143    1.1037    1.7336 N   0  0  0  0  0  0  0  0  0  0  0  0
    4.2583    0.0282    0.2971 C   0  0  0  0  0  0  0  0  0  0  0  0
    4.4441   -1.0070   -0.5928 C   0  0  0  0  0  0  0  0  0  0  0  0
    5.0666    0.6933    0.5636 H   0  0  0  0  0  0  0  0  0  0  0  0
    5.4169   -1.1597   -1.0361 H   0  0  0  0  0  0  0  0  0  0  0  0
    3.5891   -2.6689   -1.6352 H   0  0  0  0  0  0  0  0  0  0  0  0
  1  2  1  0
  1  6  1  0
  2  7  1  6
  2  5  1  0
  3  2  1  0
  3 12  1  0
  4  3  2  0
  5  9  1  6
  5 22  1  0
  5  8  1  0
 10 11  2  0
 10  1  1  0
 12 14  1  0
 13 12  1  0
 14 17  1  1
 14 15  1  0
 16 14  1  0
 18 20  1  1
 18 10  1  0
 19 18  1  0
 21 18  1  0
 22 23  2  0
 23 25  1  0
 24 26  1  0
 24 22  1  0
 26 31  1  0
 27 24  2  0
 29 33  2  0
 29 27  1  0
 30 27  1  0
 31 23  1  0
 31 28  1  0
 32 34  1  0
 32 26  2  0
 33 32  1  0
 35 33  1  0
 36 29  1  0
M  END
$$$$
