-55.58489596
     RDKit          3D

 36 37  0  0  1  0  0  0  0  0999 V2000
   -1.1274    1.1792   -0.8720 N   0  0  0  0  0  0  0  0  0  0  0  0
   -1.7304   -0.0828   -0.5450 C   0  0  2  0  0  0  0  0  0  0  0  0
   -2.0715   -0.0471    0.9480 C   0  0  0  0  0  0  0  0  0  0  0  0
   -1.5542    0.7540    1.6986 O   0  0  0  0  0  0  0  0  0  0  0  0
   -0.7553   -1.2640   -0.8075 C   0  0  1  0  0  0  0  0  0  0  0  0
   -0.6299    1.6132   -0.1012 H   0  0  0  0  0  0  0  0  0  0  0  0
   -2.6408   -0.2176   -1.1373 H   0  0  0  0  0  0  0  0  0  0  0  0
   -1.2983   -2.2061   -0.7206 H   0  0  0  0  0  0  0  0  0  0  0  0
   -0.3763   -1.1752   -1.8272 H   0  0  0  0  0  0  0  0  0  0  0  0
   -1.1215    1.8400   -2.0495 C   0  0  0  0  0  0  0  0  0  0  0  0
   -0.5324    2.8924   -2.1789 O   0  0  0  0  0  0  0  0  0  0  0  0
   -2.9688   -0.9424    1.4116 N   0  0  0  0  0  0  0  0  0  0  0  0
   -3.1031   -0.8964    2.4129 H   0  0  0  0  0  0  0  0  0  0  0  0
   -3.6668   -2.0006    0.7276 C   0  0  1  0  0  0  0  0  0  0  0  0
   -3.1197   -2.9469    0.7868 H   0  0  0  0  0  0  0  0  0  0  0  0
   -4.6438   -2.1394    1.1900 H   0  0  0  0  0  0  0  0  0  0  0  0
   -3.8173   -1.7509   -0.3202 H   0  0  0  0  0  0  0  0  0  0  0  0
   -1.8990    1.1987   -3.1843 C   0  0  2  0  0  0  0  0  0  0  0  0
   -1.5568    0.1845   -3.3735 H   0  0  0  0  0  0  0  0  0  0  0  0
   -1.7561    1.7982   -4.0788 H   0  0  0  0  0  0  0  0  0  0  0  0
   -2.9602    1.1769   -2.9431 H   0  0  0  0  0  0  0  0  0  0  0  0
    0.3861   -1.2454    0.1543 C   0  0  0  0  0  0  0  0  0  0  0  0
    0.4736   -1.9284    1.3324 C   0  0  0  0  0  0  0  0  0  0  0  0
    1.5736   -0.4560    0.0520 C   0  0  0  0  0  0  0  0  0  0  0  0
   -0.2183   -2.6259    1.7669 H   0  0  0  0  0  0  0  0  0  0  0  0
    2.3372   -0.7219    1.2135 C   0  0  0  0  0  0  0  0  0  0  0  0
    2.0668    0.4378   -0.8995 C   0  0  0  0  0  0  0  0  0  0  0  0
    1.9326   -1.9796    2.8633 H   0  0  0  0  0  0  0  0  0  0  0  0
    3.2838    1.0371   -0.6697 C   0  0  0  0  0  0  0  0  0  0  0  0
    1.5053    0.6647   -1.7926 H   0  0  0  0  0  0  0  0  0  0  0  0
    1.6454   -1.6252    1.9674 N   0  0  0  0  0  0  0  0  0  0  0  0
    3.5661   -0.1148    1.4385 C   0  0  0  0  0  0  0  0  0  0  0  0
    4.0249    0.7664    0.4841 C   0  0  0  0  0  0  0  0  0  0  0  0
    4.1364   -0.3258    2.3315 H   0  0  0  0  0  0  0  0  0  0  0  0
    4.9747    1.2601    0.6275 H   0  0  0  0  0  0  0  0  0  0  0  0
    3.6767    1.7370   -1.3918 H   0  0  0  0  0  0  0  0  0  0  0  0
  1  2  1  0
  1  6  1  0
  2  7  1  6
  2  3  1  0
  3 12  1  0
  3  4  2  0
  5  8  1  6
  5  2  1  0
  5 22  1  0
  9  5  1  0
 10  1  1  0
 11 10  2  0
 12 13  1  0
 14 15  1  6
 14 16  1  0
 14 12  1  0
 17 14  1  0
 18 21  1  1
 18 10  1  0
 19 18  1  0
 20 18  1  0
 22 23  2  0
 23 25  1  0
 23 31  1  0
 24 22  1  0
 24 26  2  0
 26 32  1  0
 26 31  1  0
 27 29  2  0
 27 24  1  0
 29 33  1  0
 30 27  1  0
 31 28  1  0
 32 34  1  0
 33 35  1  0
 33 32  2  0
 36 29  1  0
M  END
$$$$
