-55.58431560
     RDKit          3D

 36 37  0  0  1  0  0  0  0  0999 V2000
   -1.5666    1.7224   -0.4641 N   0  0  0  0  0  0  0  0  0  0  0  0
   -1.3986    0.3740   -0.9415 C   0  0  2  0  0  0  0  0  0  0  0  0
   -1.3984   -0.5884    0.2560 C   0  0  0  0  0  0  0  0  0  0  0  0
   -1.0733   -0.2246    1.3653 O   0  0  0  0  0  0  0  0  0  0  0  0
   -0.0455    0.2771   -1.6908 C   0  0  1  0  0  0  0  0  0  0  0  0
   -0.7848    2.0634    0.0821 H   0  0  0  0  0  0  0  0  0  0  0  0
   -2.2111    0.1322   -1.6284 H   0  0  0  0  0  0  0  0  0  0  0  0
    0.0117   -0.6761   -2.2183 H   0  0  0  0  0  0  0  0  0  0  0  0
   -0.0154    1.0831   -2.4272 H   0  0  0  0  0  0  0  0  0  0  0  0
   -2.7057    2.4436   -0.3397 C   0  0  0  0  0  0  0  0  0  0  0  0
   -2.6967    3.5311    0.1973 O   0  0  0  0  0  0  0  0  0  0  0  0
   -1.7689   -1.8657    0.0178 N   0  0  0  0  0  0  0  0  0  0  0  0
   -1.7538   -2.4570    0.8367 H   0  0  0  0  0  0  0  0  0  0  0  0
   -2.2791   -2.4386   -1.2035 C   0  0  1  0  0  0  0  0  0  0  0  0
   -3.2818   -2.0652   -1.4356 H   0  0  0  0  0  0  0  0  0  0  0  0
   -1.6231   -2.2213   -2.0472 H   0  0  0  0  0  0  0  0  0  0  0  0
   -2.3365   -3.5182   -1.0867 H   0  0  0  0  0  0  0  0  0  0  0  0
   -3.9571    1.8432   -0.9487 C   0  0  2  0  0  0  0  0  0  0  0  0
   -4.7784    2.5378   -0.7979 H   0  0  0  0  0  0  0  0  0  0  0  0
   -4.1938    0.8998   -0.4611 H   0  0  0  0  0  0  0  0  0  0  0  0
   -3.8250    1.6764   -2.0156 H   0  0  0  0  0  0  0  0  0  0  0  0
    1.1059    0.3929   -0.7488 C   0  0  0  0  0  0  0  0  0  0  0  0
    1.6842    1.5403   -0.2861 C   0  0  0  0  0  0  0  0  0  0  0  0
    1.7607   -0.6889   -0.0835 C   0  0  0  0  0  0  0  0  0  0  0  0
    1.4807    2.5605   -0.5537 H   0  0  0  0  0  0  0  0  0  0  0  0
    2.7300   -0.1124    0.7719 C   0  0  0  0  0  0  0  0  0  0  0  0
    1.6309   -2.0766   -0.1287 C   0  0  0  0  0  0  0  0  0  0  0  0
    3.2149    1.9142    1.1230 H   0  0  0  0  0  0  0  0  0  0  0  0
    2.4468   -2.8423    0.6721 C   0  0  0  0  0  0  0  0  0  0  0  0
    0.9056   -2.5429   -0.7795 H   0  0  0  0  0  0  0  0  0  0  0  0
    2.6645    1.2411    0.6182 N   0  0  0  0  0  0  0  0  0  0  0  0
    3.5519   -0.8907    1.5768 C   0  0  0  0  0  0  0  0  0  0  0  0
    3.3945   -2.2578    1.5169 C   0  0  0  0  0  0  0  0  0  0  0  0
    4.2850   -0.4372    2.2277 H   0  0  0  0  0  0  0  0  0  0  0  0
    4.0135   -2.8938    2.1322 H   0  0  0  0  0  0  0  0  0  0  0  0
    2.3586   -3.9191    0.6529 H   0  0  0  0  0  0  0  0  0  0  0  0
  1 10  1  0
  1  6  1  0
  2  7  1  6
  2  1  1  0
  2  3  1  0
  3  4  2  0
  5  2  1  0
  5 22  1  0
  5  8  1  6
  9  5  1  0
 10 11  2  0
 12  3  1  0
 12 13  1  0
 14 17  1  1
 14 12  1  0
 15 14  1  0
 16 14  1  0
 18 19  1  6
 18 20  1  0
 18 10  1  0
 21 18  1  0
 22 23  2  0
 22 24  1  0
 23 31  1  0
 24 26  1  0
 25 23  1  0
 26 32  2  0
 27 24  2  0
 27 29  1  0
 29 33  2  0
 30 27  1  0
 31 26  1  0
 31 28  1  0
 32 34  1  0
 33 32  1  0
 33 35  1  0
 36 29  1  0
M  END
$$$$
