-55.58421580
     RDKit          3D

 36 37  0  0  1  0  0  0  0  0999 V2000
   -1.1694    0.6133   -0.9451 N   0  0  0  0  0  0  0  0  0  0  0  0
   -1.2917   -0.4477    0.0353 C   0  0  2  0  0  0  0  0  0  0  0  0
   -2.7487   -0.8165    0.3357 C   0  0  0  0  0  0  0  0  0  0  0  0
   -3.2032   -0.8294    1.4610 O   0  0  0  0  0  0  0  0  0  0  0  0
   -0.5293   -0.1208    1.3370 C   0  0  1  0  0  0  0  0  0  0  0  0
   -0.3445    0.5569   -1.5286 H   0  0  0  0  0  0  0  0  0  0  0  0
   -0.8271   -1.3355   -0.4126 H   0  0  0  0  0  0  0  0  0  0  0  0
   -1.0408    0.6801    1.8703 H   0  0  0  0  0  0  0  0  0  0  0  0
   -0.5418   -1.0076    1.9719 H   0  0  0  0  0  0  0  0  0  0  0  0
   -1.7218    1.8559   -0.9525 C   0  0  0  0  0  0  0  0  0  0  0  0
   -1.2974    2.6926   -1.7245 O   0  0  0  0  0  0  0  0  0  0  0  0
   -3.5011   -1.1810   -0.7232 N   0  0  0  0  0  0  0  0  0  0  0  0
   -4.4609   -1.3987   -0.4936 H   0  0  0  0  0  0  0  0  0  0  0  0
   -3.1335   -1.2207   -2.1173 C   0  0  1  0  0  0  0  0  0  0  0  0
   -3.8572   -1.8313   -2.6532 H   0  0  0  0  0  0  0  0  0  0  0  0
   -3.1189   -0.2218   -2.5612 H   0  0  0  0  0  0  0  0  0  0  0  0
   -2.1465   -1.6661   -2.2419 H   0  0  0  0  0  0  0  0  0  0  0  0
   -2.9049    2.1068   -0.0516 C   0  0  2  0  0  0  0  0  0  0  0  0
   -3.7922    1.6475   -0.4841 H   0  0  0  0  0  0  0  0  0  0  0  0
   -3.0695    3.1797    0.0080 H   0  0  0  0  0  0  0  0  0  0  0  0
   -2.7607    1.7010    0.9438 H   0  0  0  0  0  0  0  0  0  0  0  0
    0.8686    0.2902    1.0211 C   0  0  0  0  0  0  0  0  0  0  0  0
    1.3527    1.5644    0.9579 C   0  0  0  0  0  0  0  0  0  0  0  0
    1.9426   -0.5716    0.6381 C   0  0  0  0  0  0  0  0  0  0  0  0
    0.8496    2.4897    1.1641 H   0  0  0  0  0  0  0  0  0  0  0  0
    3.0551    0.2616    0.3644 C   0  0  0  0  0  0  0  0  0  0  0  0
    2.0741   -1.9539    0.5033 C   0  0  0  0  0  0  0  0  0  0  0  0
    3.2421    2.3661    0.4488 H   0  0  0  0  0  0  0  0  0  0  0  0
    3.2874   -2.4644    0.1011 C   0  0  0  0  0  0  0  0  0  0  0  0
    1.2418   -2.6087    0.7175 H   0  0  0  0  0  0  0  0  0  0  0  0
    2.6646    1.5523    0.5706 N   0  0  0  0  0  0  0  0  0  0  0  0
    4.2775   -0.2607   -0.0391 C   0  0  0  0  0  0  0  0  0  0  0  0
    4.3756   -1.6291   -0.1679 C   0  0  0  0  0  0  0  0  0  0  0  0
    5.1190    0.3849   -0.2436 H   0  0  0  0  0  0  0  0  0  0  0  0
    5.3109   -2.0691   -0.4807 H   0  0  0  0  0  0  0  0  0  0  0  0
    3.4092   -3.5321   -0.0094 H   0  0  0  0  0  0  0  0  0  0  0  0
  1  2  1  0
  2  7  1  6
  2  3  1  0
  2  5  1  0
  3  4  2  0
  5  8  1  1
  5  9  1  0
  6  1  1  0
 10  1  1  0
 10 18  1  0
 11 10  2  0
 12 13  1  0
 12  3  1  0
 14 12  1  0
 14 15  1  6
 16 14  1  0
 17 14  1  0
 18 20  1  1
 18 21  1  0
 19 18  1  0
 22  5  1  0
 23 22  2  0
 23 25  1  0
 24 22  1  0
 26 31  1  0
 26 24  2  0
 27 24  1  0
 27 30  1  0
 28 31  1  0
 29 27  2  0
 31 23  1  0
 32 26  1  0
 33 32  2  0
 33 29  1  0
 34 32  1  0
 35 33  1  0
 36 29  1  0
M  END
$$$$
