-55.58396318
     RDKit          3D

 36 37  0  0  1  0  0  0  0  0999 V2000
   -1.1823    0.4971    0.4074 N   0  0  0  0  0  0  0  0  0  0  0  0
   -1.6824   -0.3201   -0.6771 C   0  0  2  0  0  0  0  0  0  0  0  0
   -2.5582   -1.4171   -0.0454 C   0  0  0  0  0  0  0  0  0  0  0  0
   -2.2364   -2.5866   -0.0163 O   0  0  0  0  0  0  0  0  0  0  0  0
   -0.5500   -0.9612   -1.5262 C   0  0  1  0  0  0  0  0  0  0  0  0
   -0.7464   -0.0135    1.1660 H   0  0  0  0  0  0  0  0  0  0  0  0
   -2.3181    0.3022   -1.3112 H   0  0  0  0  0  0  0  0  0  0  0  0
   -0.4866   -2.0148   -1.2426 H   0  0  0  0  0  0  0  0  0  0  0  0
   -0.8183   -0.9070   -2.5819 H   0  0  0  0  0  0  0  0  0  0  0  0
   -0.8319    1.8087    0.3610 C   0  0  0  0  0  0  0  0  0  0  0  0
   -0.2312    2.3192    1.2822 O   0  0  0  0  0  0  0  0  0  0  0  0
   -3.7125   -0.9997    0.5109 N   0  0  0  0  0  0  0  0  0  0  0  0
   -4.2627   -1.7355    0.9306 H   0  0  0  0  0  0  0  0  0  0  0  0
   -4.2486    0.3392    0.5529 C   0  0  1  0  0  0  0  0  0  0  0  0
   -4.5270    0.6853   -0.4469 H   0  0  0  0  0  0  0  0  0  0  0  0
   -5.1400    0.3402    1.1748 H   0  0  0  0  0  0  0  0  0  0  0  0
   -3.5249    1.0344    0.9808 H   0  0  0  0  0  0  0  0  0  0  0  0
   -1.2972    2.5923   -0.8475 C   0  0  2  0  0  0  0  0  0  0  0  0
   -2.3836    2.5941   -0.9072 H   0  0  0  0  0  0  0  0  0  0  0  0
   -0.8888    2.1612   -1.7572 H   0  0  0  0  0  0  0  0  0  0  0  0
   -0.9482    3.6158   -0.7453 H   0  0  0  0  0  0  0  0  0  0  0  0
    0.7732   -0.3133   -1.2966 C   0  0  0  0  0  0  0  0  0  0  0  0
    1.4024    0.6211   -2.0659 C   0  0  0  0  0  0  0  0  0  0  0  0
    1.6133   -0.5332   -0.1608 C   0  0  0  0  0  0  0  0  0  0  0  0
    1.1041    1.0406   -3.0091 H   0  0  0  0  0  0  0  0  0  0  0  0
    2.7361    0.3126   -0.3114 C   0  0  0  0  0  0  0  0  0  0  0  0
    1.5188   -1.3609    0.9584 C   0  0  0  0  0  0  0  0  0  0  0  0
    3.2211    1.6819   -1.8468 H   0  0  0  0  0  0  0  0  0  0  0  0
    2.5288   -1.3173    1.8918 C   0  0  0  0  0  0  0  0  0  0  0  0
    0.6765   -2.0275    1.0801 H   0  0  0  0  0  0  0  0  0  0  0  0
    2.5835    0.9948   -1.4836 N   0  0  0  0  0  0  0  0  0  0  0  0
    3.7516    0.3519    0.6353 C   0  0  0  0  0  0  0  0  0  0  0  0
    3.6291   -0.4695    1.7346 C   0  0  0  0  0  0  0  0  0  0  0  0
    4.6029    1.0055    0.5136 H   0  0  0  0  0  0  0  0  0  0  0  0
    4.3983   -0.4618    2.4927 H   0  0  0  0  0  0  0  0  0  0  0  0
    2.4766   -1.9479    2.7674 H   0  0  0  0  0  0  0  0  0  0  0  0
  1  6  1  0
  2  7  1  6
  2  3  1  0
  2  1  1  0
  3  4  2  0
  3 12  1  0
  5 22  1  0
  5  8  1  1
  5  2  1  0
  9  5  1  0
 10  1  1  0
 10 11  2  0
 12 14  1  0
 12 13  1  0
 14 17  1  1
 14 16  1  0
 15 14  1  0
 18 21  1  1
 18 10  1  0
 19 18  1  0
 20 18  1  0
 22 24  1  0
 23 31  1  0
 23 22  2  0
 24 27  1  0
 25 23  1  0
 26 24  2  0
 26 32  1  0
 27 30  1  0
 27 29  2  0
 28 31  1  0
 29 36  1  0
 31 26  1  0
 32 33  2  0
 33 29  1  0
 33 35  1  0
 34 32  1  0
M  END
$$$$
