-55.58696753
     RDKit          3D

 36 37  0  0  1  0  0  0  0  0999 V2000
   -2.6085    1.3988    0.1447 N   0  0  0  0  0  0  0  0  0  0  0  0
   -1.3771    0.7439   -0.2157 C   0  0  2  0  0  0  0  0  0  0  0  0
   -1.6014   -0.7576   -0.0144 C   0  0  0  0  0  0  0  0  0  0  0  0
   -2.2552   -1.1637    0.9262 O   0  0  0  0  0  0  0  0  0  0  0  0
   -0.2270    1.1971    0.7236 C   0  0  1  0  0  0  0  0  0  0  0  0
   -3.1234    0.9353    0.8859 H   0  0  0  0  0  0  0  0  0  0  0  0
   -1.1255    0.9709   -1.2527 H   0  0  0  0  0  0  0  0  0  0  0  0
   -0.2025    2.2888    0.7288 H   0  0  0  0  0  0  0  0  0  0  0  0
   -0.4654    0.8554    1.7324 H   0  0  0  0  0  0  0  0  0  0  0  0
   -3.1273    2.5566   -0.3203 C   0  0  0  0  0  0  0  0  0  0  0  0
   -4.1665    3.0000    0.1208 O   0  0  0  0  0  0  0  0  0  0  0  0
   -1.0426   -1.6084   -0.8942 N   0  0  0  0  0  0  0  0  0  0  0  0
   -1.2314   -2.5819   -0.7000 H   0  0  0  0  0  0  0  0  0  0  0  0
   -0.3037   -1.3151   -2.0980 C   0  0  1  0  0  0  0  0  0  0  0  0
   -0.9701   -1.0009   -2.9077 H   0  0  0  0  0  0  0  0  0  0  0  0
    0.4357   -0.5363   -1.9189 H   0  0  0  0  0  0  0  0  0  0  0  0
    0.2207   -2.2147   -2.4112 H   0  0  0  0  0  0  0  0  0  0  0  0
   -2.3478    3.2438   -1.4245 C   0  0  2  0  0  0  0  0  0  0  0  0
   -2.3427    2.6243   -2.3193 H   0  0  0  0  0  0  0  0  0  0  0  0
   -1.3226    3.4341   -1.1180 H   0  0  0  0  0  0  0  0  0  0  0  0
   -2.8363    4.1866   -1.6530 H   0  0  0  0  0  0  0  0  0  0  0  0
    1.0994    0.6637    0.3028 C   0  0  0  0  0  0  0  0  0  0  0  0
    2.0122    1.2818   -0.5035 C   0  0  0  0  0  0  0  0  0  0  0  0
    1.6538   -0.6123    0.6382 C   0  0  0  0  0  0  0  0  0  0  0  0
    1.9696    2.2554   -0.9543 H   0  0  0  0  0  0  0  0  0  0  0  0
    2.9103   -0.6932   -0.0085 C   0  0  0  0  0  0  0  0  0  0  0  0
    1.2157   -1.6815    1.4203 C   0  0  0  0  0  0  0  0  0  0  0  0
    3.9209    0.7135   -1.2220 H   0  0  0  0  0  0  0  0  0  0  0  0
    2.0237   -2.7904    1.5261 C   0  0  0  0  0  0  0  0  0  0  0  0
    0.2640   -1.6395    1.9270 H   0  0  0  0  0  0  0  0  0  0  0  0
    3.0977    0.4704   -0.6986 N   0  0  0  0  0  0  0  0  0  0  0  0
    3.7210   -1.8159    0.1029 C   0  0  0  0  0  0  0  0  0  0  0  0
    3.2595   -2.8591    0.8755 C   0  0  0  0  0  0  0  0  0  0  0  0
    4.6780   -1.8643   -0.3957 H   0  0  0  0  0  0  0  0  0  0  0  0
    3.8635   -3.7474    0.9858 H   0  0  0  0  0  0  0  0  0  0  0  0
    1.7033   -3.6291    2.1262 H   0  0  0  0  0  0  0  0  0  0  0  0
  1  6  1  0
  2  7  1  6
  2  3  1  0
  2  1  1  0
  2  5  1  0
  3  4  2  0
  5  8  1  1
  5  9  1  0
 10 11  2  0
 10  1  1  0
 12 13  1  0
 12  3  1  0
 14 16  1  1
 14 12  1  0
 15 14  1  0
 17 14  1  0
 18 20  1  1
 18 10  1  0
 19 18  1  0
 21 18  1  0
 22 24  1  0
 22  5  1  0
 23 22  2  0
 24 27  2  0
 25 23  1  0
 26 32  2  0
 26 24  1  0
 27 29  1  0
 27 30  1  0
 28 31  1  0
 29 36  1  0
 31 23  1  0
 31 26  1  0
 32 33  1  0
 33 35  1  0
 33 29  2  0
 34 32  1  0
M  END
$$$$
