-55.58667256
     RDKit          3D

 36 37  0  0  1  0  0  0  0  0999 V2000
   -1.7899    1.5604   -0.0790 N   0  0  0  0  0  0  0  0  0  0  0  0
   -1.6698    0.2559   -0.6696 C   0  0  2  0  0  0  0  0  0  0  0  0
   -1.5870   -0.7438    0.4897 C   0  0  0  0  0  0  0  0  0  0  0  0
   -1.2817   -0.3809    1.6077 O   0  0  0  0  0  0  0  0  0  0  0  0
   -0.3668    0.1408   -1.5081 C   0  0  1  0  0  0  0  0  0  0  0  0
   -1.3940    1.6174    0.8546 H   0  0  0  0  0  0  0  0  0  0  0  0
   -2.5411    0.0514   -1.2994 H   0  0  0  0  0  0  0  0  0  0  0  0
   -0.3359   -0.8293   -2.0040 H   0  0  0  0  0  0  0  0  0  0  0  0
   -0.3788    0.9202   -2.2727 H   0  0  0  0  0  0  0  0  0  0  0  0
   -2.2654    2.7056   -0.6120 C   0  0  0  0  0  0  0  0  0  0  0  0
   -2.1912    3.7561   -0.0083 O   0  0  0  0  0  0  0  0  0  0  0  0
   -1.8539   -2.0388    0.2326 N   0  0  0  0  0  0  0  0  0  0  0  0
   -1.6991   -2.6472    1.0257 H   0  0  0  0  0  0  0  0  0  0  0  0
   -2.2137   -2.6911   -1.0000 C   0  0  1  0  0  0  0  0  0  0  0  0
   -2.6729   -1.9883   -1.6907 H   0  0  0  0  0  0  0  0  0  0  0  0
   -1.3419   -3.1395   -1.4862 H   0  0  0  0  0  0  0  0  0  0  0  0
   -2.9315   -3.4840   -0.7885 H   0  0  0  0  0  0  0  0  0  0  0  0
   -2.9121    2.5934   -1.9787 C   0  0  2  0  0  0  0  0  0  0  0  0
   -3.2468    3.5807   -2.2835 H   0  0  0  0  0  0  0  0  0  0  0  0
   -3.7716    1.9277   -1.9302 H   0  0  0  0  0  0  0  0  0  0  0  0
   -2.2098    2.2110   -2.7147 H   0  0  0  0  0  0  0  0  0  0  0  0
    0.8300    0.3069   -0.6314 C   0  0  0  0  0  0  0  0  0  0  0  0
    1.3068    1.4812   -0.1229 C   0  0  0  0  0  0  0  0  0  0  0  0
    1.6362   -0.7338   -0.0782 C   0  0  0  0  0  0  0  0  0  0  0  0
    0.9615    2.4830   -0.2948 H   0  0  0  0  0  0  0  0  0  0  0  0
    2.5893   -0.1054    0.7603 C   0  0  0  0  0  0  0  0  0  0  0  0
    1.6563   -2.1222   -0.2073 C   0  0  0  0  0  0  0  0  0  0  0  0
    2.8700    1.9374    1.2226 H   0  0  0  0  0  0  0  0  0  0  0  0
    2.5982   -2.8394    0.4939 C   0  0  0  0  0  0  0  0  0  0  0  0
    0.9496   -2.6273   -0.8499 H   0  0  0  0  0  0  0  0  0  0  0  0
    2.3666    1.2384    0.7041 N   0  0  0  0  0  0  0  0  0  0  0  0
    3.5395   -0.8343    1.4637 C   0  0  0  0  0  0  0  0  0  0  0  0
    3.5283   -2.2045    1.3216 C   0  0  0  0  0  0  0  0  0  0  0  0
    4.2592   -0.3416    2.1009 H   0  0  0  0  0  0  0  0  0  0  0  0
    4.2508   -2.8030    1.8564 H   0  0  0  0  0  0  0  0  0  0  0  0
    2.6260   -3.9161    0.4068 H   0  0  0  0  0  0  0  0  0  0  0  0
  1  6  1  0
  2  7  1  6
  2  1  1  0
  2  3  1  0
  3  4  2  0
  5  2  1  0
  5 22  1  0
  5  8  1  6
  9  5  1  0
 10  1  1  0
 10 11  2  0
 12  3  1  0
 12 13  1  0
 14 17  1  1
 14 12  1  0
 15 14  1  0
 16 14  1  0
 18 20  1  1
 18 10  1  0
 19 18  1  0
 21 18  1  0
 22 23  2  0
 22 24  1  0
 23 31  1  0
 24 26  1  0
 25 23  1  0
 26 32  2  0
 27 24  2  0
 27 29  1  0
 29 33  2  0
 30 27  1  0
 31 26  1  0
 31 28  1  0
 32 34  1  0
 33 32  1  0
 33 35  1  0
 36 29  1  0
M  END
$$$$
