-55.58588042
     RDKit          3D

 36 37  0  0  1  0  0  0  0  0999 V2000
   -2.0025    1.7000   -0.2930 N   0  0  0  0  0  0  0  0  0  0  0  0
   -1.6412    0.3694   -0.6992 C   0  0  2  0  0  0  0  0  0  0  0  0
   -1.6420   -0.4870    0.5751 C   0  0  0  0  0  0  0  0  0  0  0  0
   -1.6225    0.0300    1.6753 O   0  0  0  0  0  0  0  0  0  0  0  0
   -0.2248    0.3349   -1.3388 C   0  0  1  0  0  0  0  0  0  0  0  0
   -1.8448    1.8804    0.6941 H   0  0  0  0  0  0  0  0  0  0  0  0
   -2.3815   -0.0112   -1.4112 H   0  0  0  0  0  0  0  0  0  0  0  0
   -0.1288   -0.5451   -1.9744 H   0  0  0  0  0  0  0  0  0  0  0  0
   -0.1162    1.2226   -1.9665 H   0  0  0  0  0  0  0  0  0  0  0  0
   -2.5580    2.6964   -1.0156 C   0  0  0  0  0  0  0  0  0  0  0  0
   -2.7799    3.7811   -0.5189 O   0  0  0  0  0  0  0  0  0  0  0  0
   -1.6714   -1.8248    0.4448 N   0  0  0  0  0  0  0  0  0  0  0  0
   -1.5963   -2.3183    1.3246 H   0  0  0  0  0  0  0  0  0  0  0  0
   -1.6470   -2.6480   -0.7365 C   0  0  1  0  0  0  0  0  0  0  0  0
   -2.2862   -3.5173   -0.5784 H   0  0  0  0  0  0  0  0  0  0  0  0
   -2.0209   -2.0986   -1.5965 H   0  0  0  0  0  0  0  0  0  0  0  0
   -0.6331   -2.9969   -0.9490 H   0  0  0  0  0  0  0  0  0  0  0  0
   -2.8919    2.3741   -2.4589 C   0  0  2  0  0  0  0  0  0  0  0  0
   -3.2868    3.2699   -2.9294 H   0  0  0  0  0  0  0  0  0  0  0  0
   -3.6484    1.5924   -2.4985 H   0  0  0  0  0  0  0  0  0  0  0  0
   -2.0118    2.0406   -3.0022 H   0  0  0  0  0  0  0  0  0  0  0  0
    0.8467    0.3094   -0.2970 C   0  0  0  0  0  0  0  0  0  0  0  0
    1.0910    1.2597    0.6527 C   0  0  0  0  0  0  0  0  0  0  0  0
    1.7672   -0.7551   -0.0525 C   0  0  0  0  0  0  0  0  0  0  0  0
    0.6116    2.2079    0.8002 H   0  0  0  0  0  0  0  0  0  0  0  0
    2.5332   -0.3775    1.0785 C   0  0  0  0  0  0  0  0  0  0  0  0
    2.0397   -1.9710   -0.6806 C   0  0  0  0  0  0  0  0  0  0  0  0
    2.4411    1.3633    2.2724 H   0  0  0  0  0  0  0  0  0  0  0  0
    3.0284   -2.7773   -0.1649 C   0  0  0  0  0  0  0  0  0  0  0  0
    1.4992   -2.2685   -1.5685 H   0  0  0  0  0  0  0  0  0  0  0  0
    2.1017    0.8527    1.4755 N   0  0  0  0  0  0  0  0  0  0  0  0
    3.5301   -1.1959    1.5945 C   0  0  0  0  0  0  0  0  0  0  0  0
    3.7617   -2.3984    0.9631 C   0  0  0  0  0  0  0  0  0  0  0  0
    4.1039   -0.8959    2.4589 H   0  0  0  0  0  0  0  0  0  0  0  0
    4.5286   -3.0598    1.3379 H   0  0  0  0  0  0  0  0  0  0  0  0
    3.2514   -3.7216   -0.6402 H   0  0  0  0  0  0  0  0  0  0  0  0
  1  6  1  0
  2  7  1  6
  2  1  1  0
  2  3  1  0
  3  4  2  0
  5  2  1  0
  5 22  1  0
  5  8  1  6
  9  5  1  0
 10 11  2  0
 10  1  1  0
 12  3  1  0
 12 13  1  0
 14 15  1  1
 14 12  1  0
 16 14  1  0
 17 14  1  0
 18 10  1  0
 18 19  1  6
 20 18  1  0
 21 18  1  0
 22 24  1  0
 22 23  2  0
 23 25  1  0
 23 31  1  0
 24 26  2  0
 26 31  1  0
 26 32  1  0
 27 29  2  0
 27 24  1  0
 29 33  1  0
 30 27  1  0
 31 28  1  0
 32 34  1  0
 33 35  1  0
 33 32  2  0
 36 29  1  0
M  END
$$$$
