-55.58524724
     RDKit          3D

 36 37  0  0  1  0  0  0  0  0999 V2000
   -2.4523    1.6156    0.3801 N   0  0  0  0  0  0  0  0  0  0  0  0
   -1.2214    0.9744   -0.0199 C   0  0  2  0  0  0  0  0  0  0  0  0
   -1.4619   -0.5322   -0.1906 C   0  0  0  0  0  0  0  0  0  0  0  0
   -2.1319   -1.1531    0.6088 O   0  0  0  0  0  0  0  0  0  0  0  0
   -0.1678    1.1869    1.0882 C   0  0  1  0  0  0  0  0  0  0  0  0
   -2.7148    1.4799    1.3477 H   0  0  0  0  0  0  0  0  0  0  0  0
   -0.8691    1.4270   -0.9477 H   0  0  0  0  0  0  0  0  0  0  0  0
   -0.1372    2.2524    1.3258 H   0  0  0  0  0  0  0  0  0  0  0  0
   -0.4910    0.6384    1.9755 H   0  0  0  0  0  0  0  0  0  0  0  0
   -3.4591    2.0547   -0.4153 C   0  0  0  0  0  0  0  0  0  0  0  0
   -4.4981    2.4575    0.0618 O   0  0  0  0  0  0  0  0  0  0  0  0
   -0.9111   -1.1415   -1.2608 N   0  0  0  0  0  0  0  0  0  0  0  0
   -1.0837   -2.1359   -1.3006 H   0  0  0  0  0  0  0  0  0  0  0  0
   -0.0671   -0.5772   -2.2866 C   0  0  1  0  0  0  0  0  0  0  0  0
    0.7765   -0.0410   -1.8507 H   0  0  0  0  0  0  0  0  0  0  0  0
    0.3226   -1.3859   -2.8993 H   0  0  0  0  0  0  0  0  0  0  0  0
   -0.6281    0.1036   -2.9338 H   0  0  0  0  0  0  0  0  0  0  0  0
   -3.1873    2.0529   -1.9056 C   0  0  2  0  0  0  0  0  0  0  0  0
   -2.3279    2.6773   -2.1406 H   0  0  0  0  0  0  0  0  0  0  0  0
   -4.0622    2.4463   -2.4149 H   0  0  0  0  0  0  0  0  0  0  0  0
   -3.0005    1.0369   -2.2469 H   0  0  0  0  0  0  0  0  0  0  0  0
    1.1888    0.7244    0.6734 C   0  0  0  0  0  0  0  0  0  0  0  0
    2.1777    1.4864    0.1206 C   0  0  0  0  0  0  0  0  0  0  0  0
    1.6993   -0.6106    0.7482 C   0  0  0  0  0  0  0  0  0  0  0  0
    2.1830    2.5390   -0.0907 H   0  0  0  0  0  0  0  0  0  0  0  0
    3.0108   -0.5749    0.2160 C   0  0  0  0  0  0  0  0  0  0  0  0
    1.1831   -1.8199    1.2158 C   0  0  0  0  0  0  0  0  0  0  0  0
    4.1405    1.0459   -0.5393 H   0  0  0  0  0  0  0  0  0  0  0  0
    1.9705   -2.9454    1.1305 C   0  0  0  0  0  0  0  0  0  0  0  0
    0.1886   -1.8710    1.6308 H   0  0  0  0  0  0  0  0  0  0  0  0
    3.2708    0.7118   -0.1613 N   0  0  0  0  0  0  0  0  0  0  0  0
    3.8001   -1.7152    0.1339 C   0  0  0  0  0  0  0  0  0  0  0  0
    3.2614   -2.8960    0.5957 C   0  0  0  0  0  0  0  0  0  0  0  0
    4.7995   -1.6731   -0.2741 H   0  0  0  0  0  0  0  0  0  0  0  0
    3.8466   -3.8024    0.5486 H   0  0  0  0  0  0  0  0  0  0  0  0
    1.5893   -3.8911    1.4861 H   0  0  0  0  0  0  0  0  0  0  0  0
  1  6  1  0
  2  7  1  6
  2  1  1  0
  2  5  1  0
  3  2  1  0
  3  4  2  0
  5  8  1  1
  5  9  1  0
 10 11  2  0
 10  1  1  0
 12  3  1  0
 13 12  1  0
 14 15  1  1
 14 12  1  0
 16 14  1  0
 17 14  1  0
 18 10  1  0
 18 19  1  1
 20 18  1  0
 21 18  1  0
 22 24  1  0
 22  5  1  0
 23 22  2  0
 24 27  2  0
 25 23  1  0
 26 24  1  0
 27 30  1  0
 28 31  1  0
 29 27  1  0
 29 36  1  0
 31 23  1  0
 31 26  1  0
 32 26  2  0
 32 33  1  0
 33 29  2  0
 34 32  1  0
 35 33  1  0
M  END
$$$$
