 energy: -35.866677944159 gnorm: 0.000031002022 xtb: 6.5.1 (9af7eec)
     RDKit          3D

 13 12  0  0  0  0  0  0  0  0999 V2000
   -2.4847   -0.4997    0.3392 O   0  0  0  0  0  0  0  0  0  0  0  0
   -1.4670    0.6703    0.1502 P   0  0  0  0  0  0  0  0  0  0  0  0
   -1.9548    1.9194   -0.4495 O   0  0  0  0  0  0  0  0  0  0  0  0
   -0.8981    0.9694    1.6474 O   0  0  0  0  0  0  0  0  0  0  0  0
   -2.0515    1.6768    2.5550 P   0  0  0  0  0  0  0  0  0  0  0  0
   -3.2497    0.8273    2.5778 O   0  0  0  0  0  0  0  0  0  0  0  0
   -1.3442    1.9062    3.9327 O   0  0  0  0  0  0  0  0  0  0  0  0
   -2.1855    3.1198    1.9719 O   0  0  0  0  0  0  0  0  0  0  0  0
   -0.2576   -0.0134   -0.5714 O   0  0  0  0  0  0  0  0  0  0  0  0
   -3.0667   -0.3019    1.0957 H   0  0  0  0  0  0  0  0  0  0  0  0
   -1.6766    1.3009    4.5952 H   0  0  0  0  0  0  0  0  0  0  0  0
   -2.2340    3.0713    0.9995 H   0  0  0  0  0  0  0  0  0  0  0  0
    0.1388    0.5765   -1.2121 H   0  0  0  0  0  0  0  0  0  0  0  0
  1 10  1  0
  1  2  1  0
  2  4  1  0
  2  9  1  0
  2  3  1  0
  4  5  1  0
  5  8  1  0
  5  7  1  0
  5  6  1  0
  7 11  1  0
  8 12  1  0
  9 13  1  0
M  END
$$$$
