 energy: -45.886485345755 gnorm: 0.000037364240 xtb: 6.5.1 (9af7eec)
     RDKit          3D

 33 32  0  0  0  0  0  0  0  0999 V2000
    0.4016   -0.4899   -0.6875 N   0  0  0  0  0  0  0  0  0  0  0  0
   -0.8381   -1.2473   -0.7026 C   0  0  2  0  0  0  0  0  0  0  0  0
   -1.9324   -0.4775   -1.4801 C   0  0  0  0  0  0  0  0  0  0  0  0
   -2.9293   -0.0130   -0.9640 O   0  0  0  0  0  0  0  0  0  0  0  0
   -1.2706   -1.6257    0.7157 C   0  0  1  0  0  0  0  0  0  0  0  0
   -1.5055   -0.4373    1.6483 C   0  0  2  0  0  0  0  0  0  0  0  0
    0.5724    0.0856    0.1211 H   0  0  0  0  0  0  0  0  0  0  0  0
   -0.6360   -2.1650   -1.2717 H   0  0  0  0  0  0  0  0  0  0  0  0
   -2.2027   -2.1868    0.6292 H   0  0  0  0  0  0  0  0  0  0  0  0
   -2.2119    0.2389    1.1672 H   0  0  0  0  0  0  0  0  0  0  0  0
   -0.5728    0.1055    1.8286 H   0  0  0  0  0  0  0  0  0  0  0  0
   -1.6541   -0.3966   -2.7895 N   0  0  0  0  0  0  0  0  0  0  0  0
   -0.7787   -0.7838   -3.1296 H   0  0  0  0  0  0  0  0  0  0  0  0
   -2.5036    0.2983   -3.7248 C   0  0  2  0  0  0  0  0  0  0  0  0
   -1.9788    1.1484   -4.1652 H   0  0  0  0  0  0  0  0  0  0  0  0
   -3.3786    0.6538   -3.1825 H   0  0  0  0  0  0  0  0  0  0  0  0
   -2.8194   -0.3759   -4.5223 H   0  0  0  0  0  0  0  0  0  0  0  0
    1.2942   -0.5079   -1.6959 C   0  0  0  0  0  0  0  0  0  0  0  0
    1.0957   -1.1167   -2.7337 O   0  0  0  0  0  0  0  0  0  0  0  0
    2.5486    0.2905   -1.4262 C   0  0  2  0  0  0  0  0  0  0  0  0
    3.2271    0.1862   -2.2675 H   0  0  0  0  0  0  0  0  0  0  0  0
    3.0371   -0.0671   -0.5225 H   0  0  0  0  0  0  0  0  0  0  0  0
    2.2985    1.3416   -1.2968 H   0  0  0  0  0  0  0  0  0  0  0  0
   -0.5162   -2.2889    1.1473 H   0  0  0  0  0  0  0  0  0  0  0  0
   -2.0626   -0.8946    2.9949 C   0  0  2  0  0  0  0  0  0  0  0  0
   -1.3521   -1.5732    3.4731 H   0  0  0  0  0  0  0  0  0  0  0  0
   -2.9929   -1.4452    2.8333 H   0  0  0  0  0  0  0  0  0  0  0  0
   -2.3382    0.2835    3.9442 C   0  0  2  0  0  0  0  0  0  0  0  0
   -1.4284    0.8807    4.0585 H   0  0  0  0  0  0  0  0  0  0  0  0
   -2.6071   -0.1094    4.9292 H   0  0  0  0  0  0  0  0  0  0  0  0
   -3.4007    1.1816    3.5362 N   0  0  0  0  0  0  0  0  0  0  0  0
   -3.1846    1.6026    2.6389 H   0  0  0  0  0  0  0  0  0  0  0  0
   -4.2681    0.6661    3.4253 H   0  0  0  0  0  0  0  0  0  0  0  0
  1  7  1  0
  1  2  1  0
  1 18  1  0
  2  5  1  0
  2  3  1  0
  2  8  1  6
  3  4  1  0
  3 12  1  0
  5 24  1  1
  5  9  1  0
  5  6  1  0
  6 25  1  0
  6 11  1  1
  6 10  1  0
 12 14  1  0
 12 13  1  0
 14 15  1  6
 14 16  1  0
 14 17  1  0
 18 20  1  0
 18 19  1  0
 20 22  1  1
 20 23  1  0
 20 21  1  0
 25 26  1  1
 25 27  1  0
 25 28  1  0
 28 31  1  0
 28 30  1  1
 28 29  1  0
 31 33  1  0
 31 32  1  0
M  END
$$$$
