 energy: -45.886924830029 gnorm: 0.000039316892 xtb: 6.5.1 (9af7eec)
     RDKit          3D

 33 32  0  0  0  0  0  0  0  0999 V2000
   -1.0467    1.0791    0.2536 N   0  0  0  0  0  0  0  0  0  0  0  0
   -0.9367   -0.3301    0.6186 C   0  0  2  0  0  0  0  0  0  0  0  0
    0.3603   -0.6542    1.3891 C   0  0  0  0  0  0  0  0  0  0  0  0
    0.3148   -1.1365    2.5054 O   0  0  0  0  0  0  0  0  0  0  0  0
   -1.0932   -1.2415   -0.6095 C   0  0  1  0  0  0  0  0  0  0  0  0
   -0.8494   -2.7168   -0.2916 C   0  0  2  0  0  0  0  0  0  0  0  0
   -1.7545    1.6038    0.7418 H   0  0  0  0  0  0  0  0  0  0  0  0
   -1.7536   -0.5270    1.3182 H   0  0  0  0  0  0  0  0  0  0  0  0
   -2.1036   -1.1127   -1.0063 H   0  0  0  0  0  0  0  0  0  0  0  0
    0.1819   -2.8389    0.0465 H   0  0  0  0  0  0  0  0  0  0  0  0
   -0.9666   -3.2903   -1.2148 H   0  0  0  0  0  0  0  0  0  0  0  0
    1.4871   -0.3990    0.7157 N   0  0  0  0  0  0  0  0  0  0  0  0
    1.4236    0.0559   -0.1922 H   0  0  0  0  0  0  0  0  0  0  0  0
    2.7941   -0.6357    1.2757 C   0  0  2  0  0  0  0  0  0  0  0  0
    3.3643   -1.3086    0.6328 H   0  0  0  0  0  0  0  0  0  0  0  0
    2.6644   -1.0919    2.2563 H   0  0  0  0  0  0  0  0  0  0  0  0
    3.3436    0.3015    1.3822 H   0  0  0  0  0  0  0  0  0  0  0  0
   -0.3384    1.7376   -0.6855 C   0  0  0  0  0  0  0  0  0  0  0  0
    0.5765    1.2415   -1.3211 O   0  0  0  0  0  0  0  0  0  0  0  0
   -0.7792    3.1718   -0.8786 C   0  0  2  0  0  0  0  0  0  0  0  0
   -0.1650    3.6328   -1.6465 H   0  0  0  0  0  0  0  0  0  0  0  0
   -0.6669    3.7264    0.0506 H   0  0  0  0  0  0  0  0  0  0  0  0
   -1.8224    3.2076   -1.1849 H   0  0  0  0  0  0  0  0  0  0  0  0
   -0.3885   -0.9223   -1.3782 H   0  0  0  0  0  0  0  0  0  0  0  0
   -1.7989   -3.2757    0.7670 C   0  0  2  0  0  0  0  0  0  0  0  0
   -2.8324   -3.1031    0.4580 H   0  0  0  0  0  0  0  0  0  0  0  0
   -1.6313   -2.7625    1.7160 H   0  0  0  0  0  0  0  0  0  0  0  0
   -1.5925   -4.7821    0.9955 C   0  0  2  0  0  0  0  0  0  0  0  0
   -1.6796   -5.3161    0.0447 H   0  0  0  0  0  0  0  0  0  0  0  0
   -2.3790   -5.1492    1.6617 H   0  0  0  0  0  0  0  0  0  0  0  0
   -0.3225   -5.1493    1.5924 N   0  0  0  0  0  0  0  0  0  0  0  0
    0.4425   -4.9001    0.9746 H   0  0  0  0  0  0  0  0  0  0  0  0
   -0.1895   -4.6354    2.4581 H   0  0  0  0  0  0  0  0  0  0  0  0
  1  7  1  0
  1  2  1  0
  1 18  1  0
  2  5  1  0
  2  3  1  0
  2  8  1  1
  3  4  1  0
  3 12  1  0
  5 24  1  6
  5  9  1  0
  5  6  1  0
  6 25  1  0
  6 11  1  6
  6 10  1  0
 12 14  1  0
 12 13  1  0
 14 15  1  6
 14 16  1  0
 14 17  1  0
 18 20  1  0
 18 19  1  0
 20 22  1  1
 20 23  1  0
 20 21  1  0
 25 26  1  6
 25 27  1  0
 25 28  1  0
 28 31  1  0
 28 30  1  1
 28 29  1  0
 31 33  1  0
 31 32  1  0
M  END
$$$$
