 energy: -45.884823877367 gnorm: 0.000030080884 xtb: 6.5.1 (9af7eec)
     RDKit          3D

 33 32  0  0  0  0  0  0  0  0999 V2000
   -1.0352    1.3522   -0.3561 N   0  0  0  0  0  0  0  0  0  0  0  0
   -0.9811   -0.0093   -0.8298 C   0  0  2  0  0  0  0  0  0  0  0  0
   -2.0899   -0.7779   -0.1096 C   0  0  0  0  0  0  0  0  0  0  0  0
   -2.7207   -0.2859    0.8058 O   0  0  0  0  0  0  0  0  0  0  0  0
    0.4041   -0.6527   -0.6093 C   0  0  1  0  0  0  0  0  0  0  0  0
    0.6995   -1.0806    0.8287 C   0  0  2  0  0  0  0  0  0  0  0  0
   -1.6737    1.5008    0.4156 H   0  0  0  0  0  0  0  0  0  0  0  0
   -1.1786   -0.0068   -1.9118 H   0  0  0  0  0  0  0  0  0  0  0  0
    0.4903   -1.5267   -1.2590 H   0  0  0  0  0  0  0  0  0  0  0  0
    1.6877   -1.5481    0.8402 H   0  0  0  0  0  0  0  0  0  0  0  0
   -0.0236   -1.8355    1.1471 H   0  0  0  0  0  0  0  0  0  0  0  0
   -2.2960   -2.0221   -0.5748 N   0  0  0  0  0  0  0  0  0  0  0  0
   -1.7389   -2.3623   -1.3418 H   0  0  0  0  0  0  0  0  0  0  0  0
   -3.2792   -2.9152   -0.0107 C   0  0  2  0  0  0  0  0  0  0  0  0
   -4.0170   -3.2002   -0.7624 H   0  0  0  0  0  0  0  0  0  0  0  0
   -3.7759   -2.3848    0.7999 H   0  0  0  0  0  0  0  0  0  0  0  0
   -2.8026   -3.8148    0.3830 H   0  0  0  0  0  0  0  0  0  0  0  0
   -0.4249    2.3802   -0.9811 C   0  0  0  0  0  0  0  0  0  0  0  0
    0.2754    2.2292   -1.9612 O   0  0  0  0  0  0  0  0  0  0  0  0
   -0.6896    3.7226   -0.3309 C   0  0  2  0  0  0  0  0  0  0  0  0
   -0.1318    4.4927   -0.8553 H   0  0  0  0  0  0  0  0  0  0  0  0
   -0.3834    3.7000    0.7124 H   0  0  0  0  0  0  0  0  0  0  0  0
   -1.7515    3.9532   -0.3775 H   0  0  0  0  0  0  0  0  0  0  0  0
    1.1467    0.0750   -0.9404 H   0  0  0  0  0  0  0  0  0  0  0  0
    0.6903    0.0697    1.8313 C   0  0  2  0  0  0  0  0  0  0  0  0
   -0.3339    0.4178    1.9792 H   0  0  0  0  0  0  0  0  0  0  0  0
    1.2816    0.9012    1.4375 H   0  0  0  0  0  0  0  0  0  0  0  0
    1.2623   -0.3592    3.1904 C   0  0  2  0  0  0  0  0  0  0  0  0
    2.3010   -0.6800    3.0679 H   0  0  0  0  0  0  0  0  0  0  0  0
    0.6899   -1.2085    3.5744 H   0  0  0  0  0  0  0  0  0  0  0  0
    1.2434    0.6743    4.2093 N   0  0  0  0  0  0  0  0  0  0  0  0
    1.7746    1.4812    3.8978 H   0  0  0  0  0  0  0  0  0  0  0  0
    0.2902    0.9810    4.3762 H   0  0  0  0  0  0  0  0  0  0  0  0
  1  7  1  0
  1  2  1  0
  1 18  1  0
  2  5  1  0
  2  3  1  0
  2  8  1  6
  3  4  1  0
  3 12  1  0
  5 24  1  6
  5  9  1  0
  5  6  1  0
  6 25  1  0
  6 11  1  1
  6 10  1  0
 12 14  1  0
 12 13  1  0
 14 15  1  6
 14 16  1  0
 14 17  1  0
 18 20  1  0
 18 19  1  0
 20 22  1  1
 20 23  1  0
 20 21  1  0
 25 26  1  1
 25 27  1  0
 25 28  1  0
 28 31  1  0
 28 30  1  1
 28 29  1  0
 31 33  1  0
 31 32  1  0
M  END
$$$$
