 energy: -45.885753060876 gnorm: 0.000043274655 xtb: 6.5.1 (9af7eec)
     RDKit          3D

 33 32  0  0  0  0  0  0  0  0999 V2000
   -1.1499    0.7057    1.2053 N   0  0  0  0  0  0  0  0  0  0  0  0
   -0.6033   -0.6296    1.1958 C   0  0  2  0  0  0  0  0  0  0  0  0
   -1.7063   -1.5876    1.6525 C   0  0  0  0  0  0  0  0  0  0  0  0
   -2.6614   -1.2006    2.2957 O   0  0  0  0  0  0  0  0  0  0  0  0
    0.5982   -0.7477    2.1515 C   0  0  1  0  0  0  0  0  0  0  0  0
    1.7914    0.0622    1.6520 C   0  0  2  0  0  0  0  0  0  0  0  0
   -1.8881    0.8442    1.8833 H   0  0  0  0  0  0  0  0  0  0  0  0
   -0.2829   -0.8511    0.1711 H   0  0  0  0  0  0  0  0  0  0  0  0
    0.2918   -0.3903    3.1374 H   0  0  0  0  0  0  0  0  0  0  0  0
    1.4725    1.0935    1.4925 H   0  0  0  0  0  0  0  0  0  0  0  0
    2.1164   -0.3320    0.6865 H   0  0  0  0  0  0  0  0  0  0  0  0
   -1.5033   -2.8726    1.3098 N   0  0  0  0  0  0  0  0  0  0  0  0
   -0.7014   -3.1150    0.7502 H   0  0  0  0  0  0  0  0  0  0  0  0
   -2.4077   -3.9336    1.6832 C   0  0  2  0  0  0  0  0  0  0  0  0
   -2.8298   -4.4113    0.7975 H   0  0  0  0  0  0  0  0  0  0  0  0
   -3.2090   -3.4871    2.2692 H   0  0  0  0  0  0  0  0  0  0  0  0
   -1.8926   -4.6842    2.2853 H   0  0  0  0  0  0  0  0  0  0  0  0
   -0.9811    1.5755    0.1828 C   0  0  0  0  0  0  0  0  0  0  0  0
   -0.2258    1.3597   -0.7421 O   0  0  0  0  0  0  0  0  0  0  0  0
   -1.7941    2.8439    0.3296 C   0  0  2  0  0  0  0  0  0  0  0  0
   -1.5343    3.5331   -0.4683 H   0  0  0  0  0  0  0  0  0  0  0  0
   -1.5969    3.3098    1.2922 H   0  0  0  0  0  0  0  0  0  0  0  0
   -2.8542    2.6074    0.2678 H   0  0  0  0  0  0  0  0  0  0  0  0
    0.8811   -1.7983    2.2491 H   0  0  0  0  0  0  0  0  0  0  0  0
    2.9569    0.0249    2.6372 C   0  0  2  0  0  0  0  0  0  0  0  0
    3.2240   -1.0132    2.8472 H   0  0  0  0  0  0  0  0  0  0  0  0
    2.6518    0.4867    3.5806 H   0  0  0  0  0  0  0  0  0  0  0  0
    4.2029    0.7495    2.1000 C   0  0  2  0  0  0  0  0  0  0  0  0
    4.5211    0.2791    1.1659 H   0  0  0  0  0  0  0  0  0  0  0  0
    5.0147    0.6409    2.8263 H   0  0  0  0  0  0  0  0  0  0  0  0
    4.0442    2.1665    1.8399 N   0  0  0  0  0  0  0  0  0  0  0  0
    3.3710    2.3166    1.0965 H   0  0  0  0  0  0  0  0  0  0  0  0
    3.7020    2.6398    2.6699 H   0  0  0  0  0  0  0  0  0  0  0  0
  1  7  1  0
  1  2  1  0
  1 18  1  0
  2  5  1  0
  2  3  1  0
  2  8  1  6
  3  4  1  0
  3 12  1  0
  5 24  1  1
  5  9  1  0
  5  6  1  0
  6 25  1  0
  6 11  1  6
  6 10  1  0
 12 14  1  0
 12 13  1  0
 14 15  1  6
 14 16  1  0
 14 17  1  0
 18 20  1  0
 18 19  1  0
 20 22  1  1
 20 23  1  0
 20 21  1  0
 25 26  1  1
 25 27  1  0
 25 28  1  0
 28 31  1  0
 28 30  1  1
 28 29  1  0
 31 33  1  0
 31 32  1  0
M  END
$$$$
