 energy: -45.883774515653 gnorm: 0.000025646371 xtb: 6.5.1 (9af7eec)
     RDKit          3D

 33 32  0  0  0  0  0  0  0  0999 V2000
   -1.2680    0.6815    0.6215 N   0  0  0  0  0  0  0  0  0  0  0  0
   -0.7050   -0.6419    0.4903 C   0  0  2  0  0  0  0  0  0  0  0  0
   -1.8145   -1.6409    0.8109 C   0  0  0  0  0  0  0  0  0  0  0  0
   -2.7403   -1.3485    1.5419 O   0  0  0  0  0  0  0  0  0  0  0  0
    0.4744   -0.8133    1.4693 C   0  0  1  0  0  0  0  0  0  0  0  0
    1.3397   -2.0496    1.2306 C   0  0  2  0  0  0  0  0  0  0  0  0
   -2.0593    0.7522    1.2463 H   0  0  0  0  0  0  0  0  0  0  0  0
   -0.3499   -0.7458   -0.5397 H   0  0  0  0  0  0  0  0  0  0  0  0
    1.0937    0.0802    1.3858 H   0  0  0  0  0  0  0  0  0  0  0  0
    0.7388   -2.9521    1.3705 H   0  0  0  0  0  0  0  0  0  0  0  0
    2.1169   -2.0591    1.9987 H   0  0  0  0  0  0  0  0  0  0  0  0
   -1.6678   -2.8514    0.2416 N   0  0  0  0  0  0  0  0  0  0  0  0
   -0.8900   -3.0191   -0.3756 H   0  0  0  0  0  0  0  0  0  0  0  0
   -2.5938   -3.9356    0.4649 C   0  0  2  0  0  0  0  0  0  0  0  0
   -3.0593   -4.2453   -0.4723 H   0  0  0  0  0  0  0  0  0  0  0  0
   -3.3613   -3.5737    1.1468 H   0  0  0  0  0  0  0  0  0  0  0  0
   -2.0853   -4.7916    0.9126 H   0  0  0  0  0  0  0  0  0  0  0  0
   -0.8191    1.7308   -0.0992 C   0  0  0  0  0  0  0  0  0  0  0  0
    0.1097    1.6330   -0.8753 O   0  0  0  0  0  0  0  0  0  0  0  0
   -1.5747    3.0160    0.1593 C   0  0  2  0  0  0  0  0  0  0  0  0
   -1.1674    3.8045   -0.4663 H   0  0  0  0  0  0  0  0  0  0  0  0
   -1.4774    3.2990    1.2049 H   0  0  0  0  0  0  0  0  0  0  0  0
   -2.6295    2.8808   -0.0687 H   0  0  0  0  0  0  0  0  0  0  0  0
    0.0722   -0.8494    2.4850 H   0  0  0  0  0  0  0  0  0  0  0  0
    2.0220   -2.1011   -0.1381 C   0  0  2  0  0  0  0  0  0  0  0  0
    1.2815   -2.1879   -0.9385 H   0  0  0  0  0  0  0  0  0  0  0  0
    2.6413   -3.0040   -0.1729 H   0  0  0  0  0  0  0  0  0  0  0  0
    2.9178   -0.8826   -0.4203 C   0  0  2  0  0  0  0  0  0  0  0  0
    3.5807   -0.7194    0.4349 H   0  0  0  0  0  0  0  0  0  0  0  0
    2.3053    0.0101   -0.5611 H   0  0  0  0  0  0  0  0  0  0  0  0
    3.7541   -1.0160   -1.5979 N   0  0  0  0  0  0  0  0  0  0  0  0
    4.3183   -1.8583   -1.5423 H   0  0  0  0  0  0  0  0  0  0  0  0
    3.1819   -1.0775   -2.4328 H   0  0  0  0  0  0  0  0  0  0  0  0
  1  7  1  0
  1  2  1  0
  1 18  1  0
  2  5  1  0
  2  3  1  0
  2  8  1  6
  3  4  1  0
  3 12  1  0
  5 24  1  1
  5  9  1  0
  5  6  1  0
  6 25  1  0
  6 11  1  1
  6 10  1  0
 12 14  1  0
 12 13  1  0
 14 15  1  6
 14 16  1  0
 14 17  1  0
 18 20  1  0
 18 19  1  0
 20 22  1  1
 20 23  1  0
 20 21  1  0
 25 26  1  6
 25 27  1  0
 25 28  1  0
 28 31  1  0
 28 30  1  6
 28 29  1  0
 31 33  1  0
 31 32  1  0
M  END
$$$$
