 energy: -45.882803936628 gnorm: 0.000047212533 xtb: 6.5.1 (9af7eec)
     RDKit          3D

 33 32  0  0  0  0  0  0  0  0999 V2000
   -1.1309    0.9300    0.5439 N   0  0  0  0  0  0  0  0  0  0  0  0
   -0.7621   -0.4353    0.2198 C   0  0  2  0  0  0  0  0  0  0  0  0
   -1.6782   -0.9909   -0.8995 C   0  0  0  0  0  0  0  0  0  0  0  0
   -2.4312   -1.9312   -0.7505 O   0  0  0  0  0  0  0  0  0  0  0  0
   -0.7150   -1.3520    1.4540 C   0  0  1  0  0  0  0  0  0  0  0  0
   -1.6909   -1.0351    2.5912 C   0  0  2  0  0  0  0  0  0  0  0  0
   -1.7854    1.0583    1.2978 H   0  0  0  0  0  0  0  0  0  0  0  0
    0.2432   -0.3839   -0.2197 H   0  0  0  0  0  0  0  0  0  0  0  0
   -0.9035   -2.3659    1.1000 H   0  0  0  0  0  0  0  0  0  0  0  0
   -1.4927   -0.0308    2.9782 H   0  0  0  0  0  0  0  0  0  0  0  0
   -1.4735   -1.7272    3.4086 H   0  0  0  0  0  0  0  0  0  0  0  0
   -1.5273   -0.3196   -2.0513 N   0  0  0  0  0  0  0  0  0  0  0  0
   -0.8618    0.4458   -2.0919 H   0  0  0  0  0  0  0  0  0  0  0  0
   -2.2678   -0.6449   -3.2453 C   0  0  2  0  0  0  0  0  0  0  0  0
   -2.8866    0.1991   -3.5564 H   0  0  0  0  0  0  0  0  0  0  0  0
   -2.9048   -1.4996   -3.0221 H   0  0  0  0  0  0  0  0  0  0  0  0
   -1.5864   -0.9034   -4.0573 H   0  0  0  0  0  0  0  0  0  0  0  0
   -0.6797    2.0015   -0.1359 C   0  0  0  0  0  0  0  0  0  0  0  0
    0.0224    1.9005   -1.1277 O   0  0  0  0  0  0  0  0  0  0  0  0
   -1.1261    3.3271    0.4372 C   0  0  2  0  0  0  0  0  0  0  0  0
   -0.7120    4.1334   -0.1608 H   0  0  0  0  0  0  0  0  0  0  0  0
   -0.7807    3.4274    1.4639 H   0  0  0  0  0  0  0  0  0  0  0  0
   -2.2120    3.3929    0.4250 H   0  0  0  0  0  0  0  0  0  0  0  0
    0.2952   -1.3218    1.8676 H   0  0  0  0  0  0  0  0  0  0  0  0
   -3.1687   -1.1762    2.2219 C   0  0  2  0  0  0  0  0  0  0  0  0
   -3.3590   -0.7347    1.2418 H   0  0  0  0  0  0  0  0  0  0  0  0
   -3.7773   -0.6407    2.9584 H   0  0  0  0  0  0  0  0  0  0  0  0
   -3.6226   -2.6440    2.1848 C   0  0  2  0  0  0  0  0  0  0  0  0
   -3.5239   -3.0800    3.1844 H   0  0  0  0  0  0  0  0  0  0  0  0
   -2.9883   -3.2021    1.4955 H   0  0  0  0  0  0  0  0  0  0  0  0
   -4.9921   -2.8376    1.7490 N   0  0  0  0  0  0  0  0  0  0  0  0
   -5.6227   -2.2550    2.2917 H   0  0  0  0  0  0  0  0  0  0  0  0
   -5.0757   -2.5656    0.7752 H   0  0  0  0  0  0  0  0  0  0  0  0
  1  7  1  0
  1  2  1  0
  1 18  1  0
  2  5  1  0
  2  3  1  0
  2  8  1  6
  3  4  1  0
  3 12  1  0
  5 24  1  1
  5  9  1  0
  5  6  1  0
  6 25  1  0
  6 11  1  1
  6 10  1  0
 12 14  1  0
 12 13  1  0
 14 15  1  6
 14 16  1  0
 14 17  1  0
 18 20  1  0
 18 19  1  0
 20 22  1  1
 20 23  1  0
 20 21  1  0
 25 26  1  6
 25 27  1  0
 25 28  1  0
 28 31  1  0
 28 30  1  6
 28 29  1  0
 31 33  1  0
 31 32  1  0
M  END
$$$$
