 energy: -45.886326848903 gnorm: 0.000045335254 xtb: 6.5.1 (9af7eec)
     RDKit          3D

 33 32  0  0  0  0  0  0  0  0999 V2000
   -0.5627   -0.0494    0.2344 N   0  0  0  0  0  0  0  0  0  0  0  0
   -1.0377   -1.3987    0.0384 C   0  0  2  0  0  0  0  0  0  0  0  0
   -2.3786   -1.3116   -0.7019 C   0  0  0  0  0  0  0  0  0  0  0  0
   -3.0681   -0.3131   -0.6605 O   0  0  0  0  0  0  0  0  0  0  0  0
   -1.2591   -2.1301    1.3793 C   0  0  1  0  0  0  0  0  0  0  0  0
   -0.0519   -2.9365    1.8648 C   0  0  2  0  0  0  0  0  0  0  0  0
   -1.2937    0.6101    0.4667 H   0  0  0  0  0  0  0  0  0  0  0  0
   -0.2962   -1.9249   -0.5712 H   0  0  0  0  0  0  0  0  0  0  0  0
   -1.5406   -1.3885    2.1277 H   0  0  0  0  0  0  0  0  0  0  0  0
    0.1097   -3.7734    1.1798 H   0  0  0  0  0  0  0  0  0  0  0  0
   -0.3000   -3.3559    2.8432 H   0  0  0  0  0  0  0  0  0  0  0  0
   -2.7223   -2.4349   -1.3590 N   0  0  0  0  0  0  0  0  0  0  0  0
   -2.0870   -3.2166   -1.3689 H   0  0  0  0  0  0  0  0  0  0  0  0
   -3.9627   -2.5671   -2.0851 C   0  0  2  0  0  0  0  0  0  0  0  0
   -3.7728   -2.7500   -3.1439 H   0  0  0  0  0  0  0  0  0  0  0  0
   -4.5068   -1.6311   -1.9722 H   0  0  0  0  0  0  0  0  0  0  0  0
   -4.5606   -3.3858   -1.6806 H   0  0  0  0  0  0  0  0  0  0  0  0
    0.6094    0.4091   -0.2607 C   0  0  2  0  0  0  0  0  0  0  0  0
    1.4491   -0.3237   -0.7459 O   0  0  0  0  0  0  0  0  0  0  0  0
    0.7979    1.8990   -0.0853 C   0  0  2  0  0  0  0  0  0  0  0  0
    1.7316    2.2020   -0.5501 H   0  0  0  0  0  0  0  0  0  0  0  0
    0.8317    2.1401    0.9753 H   0  0  0  0  0  0  0  0  0  0  0  0
   -0.0275    2.4398   -0.5421 H   0  0  0  0  0  0  0  0  0  0  0  0
   -2.1034   -2.8163    1.2732 H   0  0  0  0  0  0  0  0  0  0  0  0
    1.2536   -2.1508    1.9717 C   0  0  2  0  0  0  0  0  0  0  0  0
    1.5322   -1.7655    0.9895 H   0  0  0  0  0  0  0  0  0  0  0  0
    2.0432   -2.8404    2.2856 H   0  0  0  0  0  0  0  0  0  0  0  0
    1.2012   -0.9825    2.9645 C   0  0  2  0  0  0  0  0  0  0  0  0
    1.0220   -1.3586    3.9765 H   0  0  0  0  0  0  0  0  0  0  0  0
    0.3836   -0.3071    2.7030 H   0  0  0  0  0  0  0  0  0  0  0  0
    2.4139   -0.1821    2.9962 N   0  0  0  0  0  0  0  0  0  0  0  0
    3.2025   -0.7594    3.2725 H   0  0  0  0  0  0  0  0  0  0  0  0
    2.6131    0.1615    2.0611 H   0  0  0  0  0  0  0  0  0  0  0  0
  1  7  1  0
  1  2  1  0
  1 18  1  0
  2  5  1  0
  2  3  1  0
  2  8  1  6
  3  4  1  0
  3 12  1  0
  5 24  1  6
  5  9  1  0
  5  6  1  0
  6 25  1  0
  6 11  1  1
  6 10  1  0
 12 14  1  0
 12 13  1  0
 14 15  1  6
 14 16  1  0
 14 17  1  0
 18 20  1  0
 18 19  1  1
 20 22  1  1
 20 23  1  0
 20 21  1  0
 25 26  1  6
 25 27  1  0
 25 28  1  0
 28 31  1  0
 28 30  1  6
 28 29  1  0
 31 33  1  0
 31 32  1  0
M  END
$$$$
