 energy: -45.887861911377 gnorm: 0.000036745250 xtb: 6.5.1 (9af7eec)
     RDKit          3D

 33 32  0  0  0  0  0  0  0  0999 V2000
   -0.5105    0.5766    1.2827 N   0  0  0  0  0  0  0  0  0  0  0  0
    0.1205   -0.6137    0.7398 C   0  0  2  0  0  0  0  0  0  0  0  0
   -0.6720   -1.8604    1.1923 C   0  0  0  0  0  0  0  0  0  0  0  0
   -0.2647   -2.6355    2.0326 O   0  0  0  0  0  0  0  0  0  0  0  0
    1.5768   -0.7050    1.1839 C   0  0  1  0  0  0  0  0  0  0  0  0
    2.4157    0.5179    0.8118 C   0  0  2  0  0  0  0  0  0  0  0  0
   -0.1968    0.8845    2.1894 H   0  0  0  0  0  0  0  0  0  0  0  0
    0.0451   -0.5444   -0.3508 H   0  0  0  0  0  0  0  0  0  0  0  0
    1.5957   -0.8519    2.2662 H   0  0  0  0  0  0  0  0  0  0  0  0
    3.4201    0.3787    1.2176 H   0  0  0  0  0  0  0  0  0  0  0  0
    1.9973    1.4137    1.2762 H   0  0  0  0  0  0  0  0  0  0  0  0
   -1.8525   -1.9679    0.5616 N   0  0  0  0  0  0  0  0  0  0  0  0
   -2.1350   -1.2290   -0.0734 H   0  0  0  0  0  0  0  0  0  0  0  0
   -2.8018   -3.0118    0.8602 C   0  0  2  0  0  0  0  0  0  0  0  0
   -3.7161   -2.5943    1.2869 H   0  0  0  0  0  0  0  0  0  0  0  0
   -2.3403   -3.6846    1.5815 H   0  0  0  0  0  0  0  0  0  0  0  0
   -3.0531   -3.5657   -0.0455 H   0  0  0  0  0  0  0  0  0  0  0  0
   -1.5453    1.1917    0.6778 C   0  0  0  0  0  0  0  0  0  0  0  0
   -2.0357    0.7712   -0.3562 O   0  0  0  0  0  0  0  0  0  0  0  0
   -2.0277    2.4368    1.3853 C   0  0  2  0  0  0  0  0  0  0  0  0
   -2.8260    2.8919    0.8064 H   0  0  0  0  0  0  0  0  0  0  0  0
   -1.2120    3.1477    1.4958 H   0  0  0  0  0  0  0  0  0  0  0  0
   -2.4040    2.1796    2.3732 H   0  0  0  0  0  0  0  0  0  0  0  0
    2.0073   -1.5996    0.7317 H   0  0  0  0  0  0  0  0  0  0  0  0
    2.5210    0.7449   -0.6941 C   0  0  2  0  0  0  0  0  0  0  0  0
    1.5375    0.9879   -1.1044 H   0  0  0  0  0  0  0  0  0  0  0  0
    2.8713   -0.1714   -1.1774 H   0  0  0  0  0  0  0  0  0  0  0  0
    3.4868    1.8919   -1.0273 C   0  0  2  0  0  0  0  0  0  0  0  0
    4.4845    1.6522   -0.6483 H   0  0  0  0  0  0  0  0  0  0  0  0
    3.1498    2.8069   -0.5309 H   0  0  0  0  0  0  0  0  0  0  0  0
    3.6171    2.1879   -2.4415 N   0  0  0  0  0  0  0  0  0  0  0  0
    3.9517    1.3704   -2.9412 H   0  0  0  0  0  0  0  0  0  0  0  0
    2.7138    2.4358   -2.8323 H   0  0  0  0  0  0  0  0  0  0  0  0
  1  7  1  0
  1  2  1  0
  1 18  1  0
  2  5  1  0
  2  3  1  0
  2  8  1  6
  3  4  1  0
  3 12  1  0
  5 24  1  6
  5  9  1  0
  5  6  1  0
  6 25  1  0
  6 11  1  1
  6 10  1  0
 12 14  1  0
 12 13  1  0
 14 15  1  1
 14 16  1  0
 14 17  1  0
 18 20  1  0
 18 19  1  0
 20 22  1  1
 20 23  1  0
 20 21  1  0
 25 26  1  6
 25 27  1  0
 25 28  1  0
 28 31  1  0
 28 30  1  1
 28 29  1  0
 31 33  1  0
 31 32  1  0
M  END
$$$$
