 energy: -45.886464411010 gnorm: 0.000034345909 xtb: 6.5.1 (9af7eec)
     RDKit          3D

 33 32  0  0  0  0  0  0  0  0999 V2000
   -2.0391    0.7658    0.1991 N   0  0  0  0  0  0  0  0  0  0  0  0
   -1.2893   -0.4300   -0.1449 C   0  0  2  0  0  0  0  0  0  0  0  0
   -1.5527   -0.7894   -1.6244 C   0  0  0  0  0  0  0  0  0  0  0  0
   -2.2466   -1.7254   -1.9644 O   0  0  0  0  0  0  0  0  0  0  0  0
   -1.6730   -1.5896    0.7674 C   0  0  1  0  0  0  0  0  0  0  0  0
   -1.4449   -1.3117    2.2539 C   0  0  2  0  0  0  0  0  0  0  0  0
   -2.9738    0.6309    0.5507 H   0  0  0  0  0  0  0  0  0  0  0  0
   -0.2274   -0.1819   -0.0415 H   0  0  0  0  0  0  0  0  0  0  0  0
   -2.7272   -1.8233    0.5992 H   0  0  0  0  0  0  0  0  0  0  0  0
   -1.7772   -2.1873    2.8178 H   0  0  0  0  0  0  0  0  0  0  0  0
   -2.0732   -0.4742    2.5681 H   0  0  0  0  0  0  0  0  0  0  0  0
   -0.9401    0.0546   -2.4698 N   0  0  0  0  0  0  0  0  0  0  0  0
   -0.4434    0.8522   -2.0871 H   0  0  0  0  0  0  0  0  0  0  0  0
   -1.0854   -0.0368   -3.9017 C   0  0  2  0  0  0  0  0  0  0  0  0
   -1.5993    0.8419   -4.2967 H   0  0  0  0  0  0  0  0  0  0  0  0
   -1.6719   -0.9279   -4.1204 H   0  0  0  0  0  0  0  0  0  0  0  0
   -0.1067   -0.1192   -4.3765 H   0  0  0  0  0  0  0  0  0  0  0  0
   -1.5844    2.0091   -0.0520 C   0  0  0  0  0  0  0  0  0  0  0  0
   -0.5146    2.2115   -0.6000 O   0  0  0  0  0  0  0  0  0  0  0  0
   -2.5082    3.1127    0.4095 C   0  0  2  0  0  0  0  0  0  0  0  0
   -2.0364    4.0739    0.2293 H   0  0  0  0  0  0  0  0  0  0  0  0
   -2.7219    3.0084    1.4708 H   0  0  0  0  0  0  0  0  0  0  0  0
   -3.4448    3.0658   -0.1426 H   0  0  0  0  0  0  0  0  0  0  0  0
   -1.1029   -2.4636    0.4522 H   0  0  0  0  0  0  0  0  0  0  0  0
    0.0024   -0.9855    2.6332 C   0  0  2  0  0  0  0  0  0  0  0  0
    0.0380   -0.8071    3.7122 H   0  0  0  0  0  0  0  0  0  0  0  0
    0.3149   -0.0624    2.1426 H   0  0  0  0  0  0  0  0  0  0  0  0
    1.0138   -2.0921    2.2883 C   0  0  2  0  0  0  0  0  0  0  0  0
    2.0098   -1.7551    2.5913 H   0  0  0  0  0  0  0  0  0  0  0  0
    1.0354   -2.2583    1.2090 H   0  0  0  0  0  0  0  0  0  0  0  0
    0.7833   -3.3753    2.9234 N   0  0  0  0  0  0  0  0  0  0  0  0
    0.7400   -3.2664    3.9314 H   0  0  0  0  0  0  0  0  0  0  0  0
   -0.0975   -3.7719    2.6155 H   0  0  0  0  0  0  0  0  0  0  0  0
  1  7  1  0
  1  2  1  0
  1 18  1  0
  2  5  1  0
  2  3  1  0
  2  8  1  6
  3  4  1  0
  3 12  1  0
  5 24  1  6
  5  9  1  0
  5  6  1  0
  6 25  1  0
  6 11  1  1
  6 10  1  0
 12 14  1  0
 12 13  1  0
 14 15  1  6
 14 16  1  0
 14 17  1  0
 18 20  1  0
 18 19  1  0
 20 22  1  1
 20 23  1  0
 20 21  1  0
 25 26  1  1
 25 27  1  0
 25 28  1  0
 28 31  1  0
 28 30  1  6
 28 29  1  0
 31 33  1  0
 31 32  1  0
M  END
$$$$
