ICONF/SI5H12_2/struc.xyz
     RDKit          3D

 17 16  0  0  0  0  0  0  0  0999 V2000
    0.0000    1.9470   -0.8620 Si  0  0  1  0  0  4  0  0  0  0  0  0
    0.0000    0.0000    0.4480 Si  0  0  1  0  0  4  0  0  0  0  0  0
    0.0000   -1.9470   -0.8620 Si  0  0  2  0  0  4  0  0  0  0  0  0
    0.0000   -3.8800    0.4700 Si  0  0  1  0  0  4  0  0  0  0  0  0
    1.2020    1.9400   -1.7390 H   0  0  0  0  0  0  0  0  0  0  0  0
   -1.2020    1.9400   -1.7390 H   0  0  0  0  0  0  0  0  0  0  0  0
    0.0000    3.8800    0.4700 Si  0  0  1  0  0  4  0  0  0  0  0  0
    1.2010    0.0000    1.3280 H   0  0  0  0  0  0  0  0  0  0  0  0
   -1.2010    0.0000    1.3280 H   0  0  0  0  0  0  0  0  0  0  0  0
    1.2020   -1.9400   -1.7390 H   0  0  0  0  0  0  0  0  0  0  0  0
   -1.2020   -1.9400   -1.7390 H   0  0  0  0  0  0  0  0  0  0  0  0
    0.0000   -5.1140   -0.3580 H   0  0  0  0  0  0  0  0  0  0  0  0
    1.2050   -3.8920    1.3380 H   0  0  0  0  0  0  0  0  0  0  0  0
   -1.2050   -3.8920    1.3380 H   0  0  0  0  0  0  0  0  0  0  0  0
    0.0000    5.1140   -0.3580 H   0  0  0  0  0  0  0  0  0  0  0  0
   -1.2050    3.8920    1.3380 H   0  0  0  0  0  0  0  0  0  0  0  0
    1.2050    3.8920    1.3380 H   0  0  0  0  0  0  0  0  0  0  0  0
  1  5  1  6
  1  6  1  0
  1  2  1  0
  1  7  1  0
  2  3  1  0
  2  9  1  1
  2  8  1  0
  3 10  1  6
  3 11  1  0
  3  4  1  0
  4 12  1  6
  4 13  1  0
  4 14  1  0
  7 15  1  6
  7 16  1  0
  7 17  1  0
M  END
$$$$
