 energy: -61.564271361909 gnorm: 0.000048806649 xtb: 6.5.1 (9af7eec)
     RDKit          3D

 37 37  0  0  0  0  0  0  0  0999 V2000
  -10.7443   -1.1019   -1.3436 O   0  0  0  0  0  0  0  0  0  0  0  0
  -10.1363   -0.9942   -0.3123 C   0  0  0  0  0  0  0  0  0  0  0  0
  -10.6311   -1.3214    0.8738 O   0  0  0  0  0  0  0  0  0  0  0  0
  -11.5827   -1.5367    0.8191 H   0  0  0  0  0  0  0  0  0  0  0  0
   -8.7149   -0.4654   -0.1867 C   0  0  2  0  0  0  0  0  0  0  0  0
   -8.3100   -0.7805    0.7787 H   0  0  0  0  0  0  0  0  0  0  0  0
   -8.8054    0.6271   -0.1894 H   0  0  0  0  0  0  0  0  0  0  0  0
   -7.8612   -0.9123   -1.2532 N   0  0  0  0  0  0  0  0  0  0  0  0
   -7.6107   -1.8931   -1.2358 H   0  0  0  0  0  0  0  0  0  0  0  0
   -7.4874   -0.2783   -2.3867 C   0  0  0  0  0  0  0  0  0  0  0  0
   -6.8244   -0.8467   -3.2276 O   0  0  0  0  0  0  0  0  0  0  0  0
   -7.9098    1.1821   -2.5497 C   0  0  2  0  0  0  0  0  0  0  0  0
   -7.3020    1.5988   -3.3595 H   0  0  0  0  0  0  0  0  0  0  0  0
   -7.7332    1.7541   -1.6353 H   0  0  0  0  0  0  0  0  0  0  0  0
   -9.3055    1.3053   -2.8891 N   0  0  0  0  0  0  0  0  0  0  0  0
   -9.6364    0.8741   -3.7416 H   0  0  0  0  0  0  0  0  0  0  0  0
  -10.2333    1.8676   -2.0981 C   0  0  0  0  0  0  0  0  0  0  0  0
   -9.9959    2.3102   -0.9884 O   0  0  0  0  0  0  0  0  0  0  0  0
  -11.5942    1.9499   -2.7943 C   0  0  1  0  0  0  0  0  0  0  0  0
  -11.7836    0.7367   -3.5672 N   0  0  0  0  0  0  0  0  0  0  0  0
  -12.6802    0.7505   -4.0403 H   0  0  0  0  0  0  0  0  0  0  0  0
  -11.7544   -0.0741   -2.9554 H   0  0  0  0  0  0  0  0  0  0  0  0
  -11.5093    2.7799   -3.5139 H   0  0  0  0  0  0  0  0  0  0  0  0
  -12.7298    2.3324   -1.8149 C   0  0  2  0  0  0  0  0  0  0  0  0
  -13.6209    2.5523   -2.4101 H   0  0  0  0  0  0  0  0  0  0  0  0
  -12.4203    3.2434   -1.3014 H   0  0  0  0  0  0  0  0  0  0  0  0
  -13.0575    1.2755   -0.8026 C   0  0  0  0  0  0  0  0  0  0  0  0
  -12.6366    1.4085    0.5152 C   0  0  0  0  0  0  0  0  0  0  0  0
  -12.0400    2.2633    0.7943 H   0  0  0  0  0  0  0  0  0  0  0  0
  -12.9736    0.4591    1.4629 C   0  0  0  0  0  0  0  0  0  0  0  0
  -12.6527    0.5833    2.4867 H   0  0  0  0  0  0  0  0  0  0  0  0
  -13.7159   -0.6560    1.0992 C   0  0  0  0  0  0  0  0  0  0  0  0
  -13.9848   -1.3962    1.8401 H   0  0  0  0  0  0  0  0  0  0  0  0
  -14.1321   -0.8023   -0.2143 C   0  0  0  0  0  0  0  0  0  0  0  0
  -14.7167   -1.6633   -0.5046 H   0  0  0  0  0  0  0  0  0  0  0  0
  -13.8144    0.1627   -1.1535 C   0  0  0  0  0  0  0  0  0  0  0  0
  -14.1754    0.0519   -2.1660 H   0  0  0  0  0  0  0  0  0  0  0  0
  1  2  2  0
  2  3  1  0
  2  5  1  0
  3  4  1  0
  5  6  1  1
  5  8  1  0
  5  7  1  0
  8 10  1  0
  8  9  1  0
 10 11  2  0
 10 12  1  0
 12 15  1  0
 12 13  1  6
 12 14  1  0
 15 16  1  0
 15 17  1  0
 17 19  1  0
 17 18  2  0
 19 20  1  0
 19 23  1  6
 19 24  1  0
 20 22  1  0
 20 21  1  0
 24 26  1  1
 24 27  1  0
 24 25  1  0
 27 28  2  0
 27 36  1  0
 28 29  1  0
 28 30  1  0
 30 31  1  0
 30 32  2  0
 32 33  1  0
 32 34  1  0
 34 36  2  0
 34 35  1  0
 36 37  1  0
M  END
$$$$
