 energy: -61.563150494947 gnorm: 0.000038484699 xtb: 6.5.1 (9af7eec)
     RDKit          3D

 37 37  0  0  0  0  0  0  0  0999 V2000
   -9.4438   -3.4376   -1.5161 O   0  0  0  0  0  0  0  0  0  0  0  0
  -10.3208   -2.6210   -1.6416 C   0  0  0  0  0  0  0  0  0  0  0  0
  -11.5456   -2.8871   -2.0404 O   0  0  0  0  0  0  0  0  0  0  0  0
  -11.5741   -3.7438   -2.5601 H   0  0  0  0  0  0  0  0  0  0  0  0
  -10.1139   -1.1218   -1.4096 C   0  0  2  0  0  0  0  0  0  0  0  0
  -10.7063   -0.8054   -0.5490 H   0  0  0  0  0  0  0  0  0  0  0  0
  -10.5084   -0.6140   -2.2950 H   0  0  0  0  0  0  0  0  0  0  0  0
   -8.7330   -0.7837   -1.1946 N   0  0  0  0  0  0  0  0  0  0  0  0
   -8.4058   -0.7913   -0.2377 H   0  0  0  0  0  0  0  0  0  0  0  0
   -7.7330   -0.7434   -2.1047 C   0  0  0  0  0  0  0  0  0  0  0  0
   -6.5825   -0.5716   -1.7622 O   0  0  0  0  0  0  0  0  0  0  0  0
   -8.1028   -0.8938   -3.5839 C   0  0  2  0  0  0  0  0  0  0  0  0
   -7.2327   -0.5699   -4.1646 H   0  0  0  0  0  0  0  0  0  0  0  0
   -8.9675   -0.2838   -3.8555 H   0  0  0  0  0  0  0  0  0  0  0  0
   -8.4212   -2.2683   -3.9062 N   0  0  0  0  0  0  0  0  0  0  0  0
   -7.7990   -2.9686   -3.5326 H   0  0  0  0  0  0  0  0  0  0  0  0
   -9.6192   -2.6406   -4.3966 C   0  0  0  0  0  0  0  0  0  0  0  0
  -10.4724   -1.8486   -4.7469 O   0  0  0  0  0  0  0  0  0  0  0  0
   -9.8164   -4.1528   -4.5292 C   0  0  1  0  0  0  0  0  0  0  0  0
  -11.2082   -4.4475   -4.2095 N   0  0  0  0  0  0  0  0  0  0  0  0
  -11.4247   -5.4118   -4.4436 H   0  0  0  0  0  0  0  0  0  0  0  0
  -11.7993   -3.8357   -4.7691 H   0  0  0  0  0  0  0  0  0  0  0  0
   -9.1881   -4.6837   -3.8064 H   0  0  0  0  0  0  0  0  0  0  0  0
   -9.4088   -4.5593   -5.9668 C   0  0  2  0  0  0  0  0  0  0  0  0
   -8.3689   -4.2699   -6.1290 H   0  0  0  0  0  0  0  0  0  0  0  0
  -10.0356   -4.0077   -6.6715 H   0  0  0  0  0  0  0  0  0  0  0  0
   -9.5758   -6.0387   -6.1564 C   0  0  0  0  0  0  0  0  0  0  0  0
   -8.5992   -6.9186   -5.7043 C   0  0  0  0  0  0  0  0  0  0  0  0
   -7.6965   -6.5274   -5.2570 H   0  0  0  0  0  0  0  0  0  0  0  0
   -8.7707   -8.2849   -5.8288 C   0  0  0  0  0  0  0  0  0  0  0  0
   -8.0017   -8.9571   -5.4779 H   0  0  0  0  0  0  0  0  0  0  0  0
   -9.9255   -8.7916   -6.4019 C   0  0  0  0  0  0  0  0  0  0  0  0
  -10.0595   -9.8585   -6.4990 H   0  0  0  0  0  0  0  0  0  0  0  0
  -10.9051   -7.9245   -6.8528 C   0  0  0  0  0  0  0  0  0  0  0  0
  -11.8070   -8.3122   -7.3032 H   0  0  0  0  0  0  0  0  0  0  0  0
  -10.7313   -6.5565   -6.7289 C   0  0  0  0  0  0  0  0  0  0  0  0
  -11.4964   -5.8842   -7.0929 H   0  0  0  0  0  0  0  0  0  0  0  0
  1  2  2  0
  2  3  1  0
  2  5  1  0
  3  4  1  0
  5  6  1  1
  5  8  1  0
  5  7  1  0
  8 10  1  0
  8  9  1  0
 10 11  2  0
 10 12  1  0
 12 15  1  0
 12 13  1  6
 12 14  1  0
 15 16  1  0
 15 17  1  0
 17 19  1  0
 17 18  2  0
 19 20  1  0
 19 23  1  1
 19 24  1  0
 20 22  1  0
 20 21  1  0
 24 26  1  6
 24 27  1  0
 24 25  1  0
 27 28  2  0
 27 36  1  0
 28 29  1  0
 28 30  1  0
 30 31  1  0
 30 32  2  0
 32 33  1  0
 32 34  1  0
 34 36  2  0
 34 35  1  0
 36 37  1  0
M  END
$$$$
