 energy: -61.561412875277 gnorm: 0.000047335116 xtb: 6.5.1 (9af7eec)
     RDKit          3D

 37 37  0  0  0  0  0  0  0  0999 V2000
   -3.3250   -0.2244    2.7020 O   0  0  0  0  0  0  0  0  0  0  0  0
   -3.3689   -0.8450    1.6753 C   0  0  0  0  0  0  0  0  0  0  0  0
   -4.4591   -1.4536    1.2227 O   0  0  0  0  0  0  0  0  0  0  0  0
   -5.2269   -1.2524    1.7805 H   0  0  0  0  0  0  0  0  0  0  0  0
   -2.1847   -1.0866    0.7482 C   0  0  2  0  0  0  0  0  0  0  0  0
   -2.4565   -0.6552   -0.2163 H   0  0  0  0  0  0  0  0  0  0  0  0
   -2.0695   -2.1667    0.6168 H   0  0  0  0  0  0  0  0  0  0  0  0
   -0.9610   -0.5268    1.2517 N   0  0  0  0  0  0  0  0  0  0  0  0
   -0.5359   -1.0274    2.0224 H   0  0  0  0  0  0  0  0  0  0  0  0
   -0.4130    0.6927    1.0460 C   0  0  0  0  0  0  0  0  0  0  0  0
    0.5781    1.0370    1.6547 O   0  0  0  0  0  0  0  0  0  0  0  0
   -1.0671    1.6198    0.0182 C   0  0  2  0  0  0  0  0  0  0  0  0
   -1.5919    1.0740   -0.7662 H   0  0  0  0  0  0  0  0  0  0  0  0
   -0.2746    2.2305   -0.4221 H   0  0  0  0  0  0  0  0  0  0  0  0
   -2.0199    2.4989    0.6627 N   0  0  0  0  0  0  0  0  0  0  0  0
   -1.6384    3.1799    1.3034 H   0  0  0  0  0  0  0  0  0  0  0  0
   -3.3426    2.2438    0.7036 C   0  0  0  0  0  0  0  0  0  0  0  0
   -3.8619    1.3144    0.1075 O   0  0  0  0  0  0  0  0  0  0  0  0
   -4.1674    3.2523    1.5109 C   0  0  1  0  0  0  0  0  0  0  0  0
   -5.5858    3.1424    1.2266 N   0  0  0  0  0  0  0  0  0  0  0  0
   -5.8823    2.1862    1.4012 H   0  0  0  0  0  0  0  0  0  0  0  0
   -5.7568    3.3226    0.2423 H   0  0  0  0  0  0  0  0  0  0  0  0
   -3.8466    4.2657    1.2409 H   0  0  0  0  0  0  0  0  0  0  0  0
   -3.9410    3.0288    3.0215 C   0  0  2  0  0  0  0  0  0  0  0  0
   -4.0955    1.9729    3.2481 H   0  0  0  0  0  0  0  0  0  0  0  0
   -4.7033    3.6121    3.5419 H   0  0  0  0  0  0  0  0  0  0  0  0
   -2.5704    3.4488    3.4662 C   0  0  0  0  0  0  0  0  0  0  0  0
   -2.2276    4.7965    3.5194 C   0  0  0  0  0  0  0  0  0  0  0  0
   -2.9678    5.5441    3.2702 H   0  0  0  0  0  0  0  0  0  0  0  0
   -0.9531    5.1831    3.8939 C   0  0  0  0  0  0  0  0  0  0  0  0
   -0.6998    6.2328    3.9326 H   0  0  0  0  0  0  0  0  0  0  0  0
   -0.0043    4.2275    4.2190 C   0  0  0  0  0  0  0  0  0  0  0  0
    0.9919    4.5302    4.5051 H   0  0  0  0  0  0  0  0  0  0  0  0
   -0.3381    2.8846    4.1797 C   0  0  0  0  0  0  0  0  0  0  0  0
    0.3984    2.1357    4.4257 H   0  0  0  0  0  0  0  0  0  0  0  0
   -1.6144    2.4988    3.8083 C   0  0  0  0  0  0  0  0  0  0  0  0
   -1.8778    1.4524    3.7738 H   0  0  0  0  0  0  0  0  0  0  0  0
  1  2  2  0
  2  3  1  0
  2  5  1  0
  3  4  1  0
  5  6  1  6
  5  8  1  0
  5  7  1  0
  8 10  1  0
  8  9  1  0
 10 11  2  0
 10 12  1  0
 12 15  1  0
 12 13  1  6
 12 14  1  0
 15 16  1  0
 15 17  1  0
 17 19  1  0
 17 18  2  0
 19 20  1  0
 19 23  1  6
 19 24  1  0
 20 22  1  0
 20 21  1  0
 24 26  1  1
 24 27  1  0
 24 25  1  0
 27 28  2  0
 27 36  1  0
 28 29  1  0
 28 30  1  0
 30 31  1  0
 30 32  2  0
 32 33  1  0
 32 34  1  0
 34 36  2  0
 34 35  1  0
 36 37  1  0
M  END
$$$$
