 energy: -61.566546363979 gnorm: 0.000025229756 xtb: 6.5.1 (9af7eec)
     RDKit          3D

 37 37  0  0  0  0  0  0  0  0999 V2000
   -5.1109   -3.6117   -1.3613 O   0  0  0  0  0  0  0  0  0  0  0  0
   -4.9948   -3.0421   -0.3104 C   0  0  0  0  0  0  0  0  0  0  0  0
   -5.9751   -2.3309    0.2482 O   0  0  0  0  0  0  0  0  0  0  0  0
   -6.7668   -2.3320   -0.3139 H   0  0  0  0  0  0  0  0  0  0  0  0
   -3.7417   -3.0321    0.5425 C   0  0  2  0  0  0  0  0  0  0  0  0
   -4.0162   -3.2435    1.5800 H   0  0  0  0  0  0  0  0  0  0  0  0
   -3.3008   -2.0294    0.4914 H   0  0  0  0  0  0  0  0  0  0  0  0
   -2.7576   -3.9640    0.0644 N   0  0  0  0  0  0  0  0  0  0  0  0
   -3.0128   -4.9486    0.0017 H   0  0  0  0  0  0  0  0  0  0  0  0
   -1.6773   -3.5493   -0.6288 C   0  0  0  0  0  0  0  0  0  0  0  0
   -1.3652   -2.3874   -0.7752 O   0  0  0  0  0  0  0  0  0  0  0  0
   -0.8576   -4.7191   -1.1908 C   0  0  2  0  0  0  0  0  0  0  0  0
   -0.7121   -5.4639   -0.4030 H   0  0  0  0  0  0  0  0  0  0  0  0
    0.1068   -4.3462   -1.5353 H   0  0  0  0  0  0  0  0  0  0  0  0
   -1.5355   -5.3590   -2.3018 N   0  0  0  0  0  0  0  0  0  0  0  0
   -1.3724   -4.9753   -3.2208 H   0  0  0  0  0  0  0  0  0  0  0  0
   -2.5919   -6.1773   -2.1311 C   0  0  0  0  0  0  0  0  0  0  0  0
   -2.9905   -6.5268   -1.0291 O   0  0  0  0  0  0  0  0  0  0  0  0
   -3.2466   -6.6741   -3.4218 C   0  0  1  0  0  0  0  0  0  0  0  0
   -4.1381   -7.7931   -3.1881 N   0  0  0  0  0  0  0  0  0  0  0  0
   -4.8402   -7.5161   -2.5075 H   0  0  0  0  0  0  0  0  0  0  0  0
   -3.6248   -8.5668   -2.7776 H   0  0  0  0  0  0  0  0  0  0  0  0
   -2.4638   -7.0021   -4.1167 H   0  0  0  0  0  0  0  0  0  0  0  0
   -4.0529   -5.5208   -4.0607 C   0  0  2  0  0  0  0  0  0  0  0  0
   -4.7105   -5.0913   -3.3034 H   0  0  0  0  0  0  0  0  0  0  0  0
   -4.6682   -5.9676   -4.8440 H   0  0  0  0  0  0  0  0  0  0  0  0
   -3.1704   -4.4535   -4.6382 C   0  0  0  0  0  0  0  0  0  0  0  0
   -3.0423   -3.2207   -4.0065 C   0  0  0  0  0  0  0  0  0  0  0  0
   -3.6121   -3.0269   -3.1105 H   0  0  0  0  0  0  0  0  0  0  0  0
   -2.1926   -2.2522   -4.5122 C   0  0  0  0  0  0  0  0  0  0  0  0
   -2.0954   -1.3062   -4.0017 H   0  0  0  0  0  0  0  0  0  0  0  0
   -1.4638   -2.5023   -5.6627 C   0  0  0  0  0  0  0  0  0  0  0  0
   -0.7992   -1.7488   -6.0586 H   0  0  0  0  0  0  0  0  0  0  0  0
   -1.5948   -3.7209   -6.3088 C   0  0  0  0  0  0  0  0  0  0  0  0
   -1.0363   -3.9163   -7.2127 H   0  0  0  0  0  0  0  0  0  0  0  0
   -2.4409   -4.6899   -5.7995 C   0  0  0  0  0  0  0  0  0  0  0  0
   -2.5433   -5.6384   -6.3077 H   0  0  0  0  0  0  0  0  0  0  0  0
  1  2  2  0
  2  3  1  0
  2  5  1  0
  3  4  1  0
  5  6  1  1
  5  8  1  0
  5  7  1  0
  8 10  1  0
  8  9  1  0
 10 11  2  0
 10 12  1  0
 12 15  1  0
 12 13  1  1
 12 14  1  0
 15 16  1  0
 15 17  1  0
 17 19  1  0
 17 18  2  0
 19 20  1  0
 19 23  1  6
 19 24  1  0
 20 22  1  0
 20 21  1  0
 24 26  1  6
 24 27  1  0
 24 25  1  0
 27 28  2  0
 27 36  1  0
 28 29  1  0
 28 30  1  0
 30 31  1  0
 30 32  2  0
 32 33  1  0
 32 34  1  0
 34 36  2  0
 34 35  1  0
 36 37  1  0
M  END
$$$$
