 energy: -74.401349343370 gnorm: 0.000043373288 xtb: 6.5.1 (9af7eec)
     RDKit          3D

 37 39  0  0  0  0  0  0  0  0999 V2000
    2.6747    0.8281   -2.9153 C   0  0  0  0  0  0  0  0  0  0  0  0
    3.6239    1.5278   -2.3886 N   0  0  0  0  0  0  0  0  0  0  0  0
    3.9679    2.4514   -3.3393 C   0  0  0  0  0  0  0  0  0  0  0  0
    3.1697    2.2701   -4.4685 C   0  0  0  0  0  0  0  0  0  0  0  0
    2.3405    1.2240   -4.1922 N   0  0  0  0  0  0  0  0  0  0  0  0
    1.4397    0.5154   -5.0793 C   0  0  2  0  0  0  0  0  0  0  0  0
    2.2138   -0.4970   -5.9579 C   0  0  2  0  0  0  0  0  0  0  0  0
    1.6695   -0.2341   -7.3694 C   0  0  2  0  0  0  0  0  0  0  0  0
    1.2939    1.2576   -7.2594 C   0  0  2  0  0  0  0  0  0  0  0  0
    0.7477    1.3716   -5.9451 O   0  0  0  0  0  0  0  0  0  0  0  0
    0.2800    1.7217   -8.2979 C   0  0  2  0  0  0  0  0  0  0  0  0
   -0.2535    2.9940   -8.0176 O   0  0  0  0  0  0  0  0  0  0  0  0
    0.7277    4.2298   -7.7004 P   0  0  1  0  0  5  0  0  0  0  0  0
    1.9992    4.2222   -8.4357 O   0  0  0  0  0  0  0  0  0  0  0  0
   -0.2101    5.4489   -8.0341 O   0  0  0  0  0  0  0  0  0  0  0  0
    0.8586    4.3105   -6.1277 O   0  0  0  0  0  0  0  0  0  0  0  0
    0.5757   -1.0501   -7.6812 O   0  0  0  0  0  0  0  0  0  0  0  0
    3.1874    3.0074   -5.6007 N   0  0  0  0  0  0  0  0  0  0  0  0
    4.1115    3.9443   -5.6283 C   0  0  0  0  0  0  0  0  0  0  0  0
    4.9569    4.1641   -4.5838 N   0  0  0  0  0  0  0  0  0  0  0  0
    4.9687    3.4794   -3.3378 C   0  0  0  0  0  0  0  0  0  0  0  0
    5.7648    3.8159   -2.4963 O   0  0  0  0  0  0  0  0  0  0  0  0
    4.2383    4.6768   -6.7393 N   0  0  0  0  0  0  0  0  0  0  0  0
    2.1797    0.0114   -2.4296 H   0  0  0  0  0  0  0  0  0  0  0  0
    0.7011    0.0265   -4.4280 H   0  0  0  0  0  0  0  0  0  0  0  0
    2.0440   -1.5265   -5.6500 H   0  0  0  0  0  0  0  0  0  0  0  0
    3.2807   -0.2827   -5.9158 H   0  0  0  0  0  0  0  0  0  0  0  0
    2.4084   -0.4191   -8.1494 H   0  0  0  0  0  0  0  0  0  0  0  0
    2.1955    1.8798   -7.3338 H   0  0  0  0  0  0  0  0  0  0  0  0
   -0.5798    1.0472   -8.3356 H   0  0  0  0  0  0  0  0  0  0  0  0
    0.7800    1.7314   -9.2718 H   0  0  0  0  0  0  0  0  0  0  0  0
   -1.0134    5.4300   -7.5137 H   0  0  0  0  0  0  0  0  0  0  0  0
    1.6080    3.7476   -5.8358 H   0  0  0  0  0  0  0  0  0  0  0  0
   -0.1296   -0.8773   -7.0444 H   0  0  0  0  0  0  0  0  0  0  0  0
    5.6538    4.8955   -4.6613 H   0  0  0  0  0  0  0  0  0  0  0  0
    3.5279    4.5608   -7.4640 H   0  0  0  0  0  0  0  0  0  0  0  0
    4.8338    5.4846   -6.7571 H   0  0  0  0  0  0  0  0  0  0  0  0
  1  2  2  0
  2  3  1  0
  3  4  2  0
  4  5  1  0
  5  6  1  0
  6  7  1  0
  7  8  1  0
  8  9  1  0
  9 10  1  0
  9 11  1  0
 11 12  1  0
 13 12  1  1
 13 14  2  0
 13 15  1  0
 13 16  1  0
  8 17  1  0
  4 18  1  0
 18 19  2  0
 19 20  1  0
 20 21  1  0
 21 22  2  0
 19 23  1  0
  5  1  1  0
 21  3  1  0
 10  6  1  0
  1 24  1  0
  6 25  1  1
  7 26  1  1
  7 27  1  0
  8 28  1  6
  9 29  1  1
 11 30  1  6
 11 31  1  0
 15 32  1  0
 16 33  1  0
 17 34  1  0
 20 35  1  0
 23 36  1  0
 23 37  1  0
M  END
$$$$
