 energy: -74.394008251887 gnorm: 0.000041818141 xtb: 6.5.1 (9af7eec)
     RDKit          3D

 37 39  0  0  0  0  0  0  0  0999 V2000
    3.9114    2.5004   -5.2950 C   0  0  0  0  0  0  0  0  0  0  0  0
    3.8160    3.3272   -6.2828 N   0  0  0  0  0  0  0  0  0  0  0  0
    2.9065    2.7660   -7.1377 C   0  0  0  0  0  0  0  0  0  0  0  0
    2.4598    1.5511   -6.6120 C   0  0  0  0  0  0  0  0  0  0  0  0
    3.1172    1.3845   -5.4273 N   0  0  0  0  0  0  0  0  0  0  0  0
    3.0121    0.3230   -4.4540 C   0  0  2  0  0  0  0  0  0  0  0  0
    3.1796   -1.0735   -5.0469 C   0  0  2  0  0  0  0  0  0  0  0  0
    1.7445   -1.5779   -5.2753 C   0  0  2  0  0  0  0  0  0  0  0  0
    0.8718   -0.5957   -4.4357 C   0  0  2  0  0  0  0  0  0  0  0  0
    1.7505    0.3389   -3.8251 O   0  0  0  0  0  0  0  0  0  0  0  0
    0.1001   -1.2842   -3.3088 C   0  0  2  0  0  0  0  0  0  0  0  0
    0.9851   -1.8845   -2.3913 O   0  0  0  0  0  0  0  0  0  0  0  0
    1.9679   -1.0267   -1.4529 P   0  0  1  0  0  5  0  0  0  0  0  0
    3.3772   -0.9722   -1.8522 O   0  0  0  0  0  0  0  0  0  0  0  0
    1.2448    0.3544   -1.1342 O   0  0  0  0  0  0  0  0  0  0  0  0
    1.7377   -1.8278   -0.1048 O   0  0  0  0  0  0  0  0  0  0  0  0
    1.5576   -2.9218   -4.9588 O   0  0  0  0  0  0  0  0  0  0  0  0
    1.5530    0.7183   -7.1728 N   0  0  0  0  0  0  0  0  0  0  0  0
    1.0962    1.1265   -8.3233 C   0  0  0  0  0  0  0  0  0  0  0  0
    1.4695    2.2947   -8.9125 N   0  0  0  0  0  0  0  0  0  0  0  0
    2.4034    3.2324   -8.3969 C   0  0  0  0  0  0  0  0  0  0  0  0
    2.6379    4.2311   -9.0323 O   0  0  0  0  0  0  0  0  0  0  0  0
    0.2336    0.3285   -9.0010 N   0  0  0  0  0  0  0  0  0  0  0  0
    4.5482    2.6392   -4.4442 H   0  0  0  0  0  0  0  0  0  0  0  0
    3.7559    0.5288   -3.6778 H   0  0  0  0  0  0  0  0  0  0  0  0
    3.6732   -1.7050   -4.3078 H   0  0  0  0  0  0  0  0  0  0  0  0
    3.7640   -1.0568   -5.9628 H   0  0  0  0  0  0  0  0  0  0  0  0
    1.4727   -1.4832   -6.3289 H   0  0  0  0  0  0  0  0  0  0  0  0
    0.1701   -0.0588   -5.0864 H   0  0  0  0  0  0  0  0  0  0  0  0
   -0.5199   -2.0887   -3.7118 H   0  0  0  0  0  0  0  0  0  0  0  0
   -0.5275   -0.5481   -2.7981 H   0  0  0  0  0  0  0  0  0  0  0  0
    1.4852    1.0151   -1.7851 H   0  0  0  0  0  0  0  0  0  0  0  0
    2.5684   -1.9164    0.3591 H   0  0  0  0  0  0  0  0  0  0  0  0
    1.7732   -3.0575   -4.0250 H   0  0  0  0  0  0  0  0  0  0  0  0
    1.0842    2.5422   -9.8163 H   0  0  0  0  0  0  0  0  0  0  0  0
   -0.1328   -0.4641   -8.5036 H   0  0  0  0  0  0  0  0  0  0  0  0
   -0.3177    0.7084   -9.7501 H   0  0  0  0  0  0  0  0  0  0  0  0
  1  2  2  0
  2  3  1  0
  3  4  2  0
  4  5  1  0
  5  6  1  0
  6  7  1  0
  7  8  1  0
  8  9  1  0
  9 10  1  0
  9 11  1  0
 11 12  1  0
 13 12  1  6
 13 14  2  0
 13 15  1  0
 13 16  1  0
  8 17  1  0
  4 18  1  0
 18 19  2  0
 19 20  1  0
 20 21  1  0
 21 22  2  0
 19 23  1  0
  5  1  1  0
 21  3  1  0
 10  6  1  0
  1 24  1  0
  6 25  1  1
  7 26  1  1
  7 27  1  0
  8 28  1  6
  9 29  1  6
 11 30  1  6
 11 31  1  0
 15 32  1  0
 16 33  1  0
 17 34  1  0
 20 35  1  0
 23 36  1  0
 23 37  1  0
M  END
$$$$
