-19.99203398
     RDKit          3D

 20 19  0  0  0  0  0  0  0  0999 V2000
    2.7372    0.2333   -0.5792 C   0  0  2  0  0  0  0  0  0  0  0  0
    1.4115   -0.4368   -0.2384 C   0  0  2  0  0  0  0  0  0  0  0  0
    0.5308    0.4673    0.6212 C   0  0  2  0  0  0  0  0  0  0  0  0
   -0.7510   -0.2101    1.1084 C   0  0  2  0  0  0  0  0  0  0  0  0
   -1.7173   -0.6382    0.0024 C   0  0  2  0  0  0  0  0  0  0  0  0
   -2.2450    0.5303   -0.8217 C   0  0  2  0  0  0  0  0  0  0  0  0
    2.5670    1.1597   -1.1242 H   0  0  0  0  0  0  0  0  0  0  0  0
    3.3503   -0.4196   -1.1964 H   0  0  0  0  0  0  0  0  0  0  0  0
    3.2914    0.4684    0.3271 H   0  0  0  0  0  0  0  0  0  0  0  0
    1.6034   -1.3689    0.2987 H   0  0  0  0  0  0  0  0  0  0  0  0
    0.8923   -0.6869   -1.1650 H   0  0  0  0  0  0  0  0  0  0  0  0
    0.2822    1.3698    0.0604 H   0  0  0  0  0  0  0  0  0  0  0  0
    1.1039    0.7793    1.4986 H   0  0  0  0  0  0  0  0  0  0  0  0
   -1.2727    0.4786    1.7784 H   0  0  0  0  0  0  0  0  0  0  0  0
   -0.4795   -1.0936    1.6922 H   0  0  0  0  0  0  0  0  0  0  0  0
   -2.5625   -1.1489    0.4710 H   0  0  0  0  0  0  0  0  0  0  0  0
   -1.2290   -1.3579   -0.6566 H   0  0  0  0  0  0  0  0  0  0  0  0
   -2.6909    1.2823   -0.1739 H   0  0  0  0  0  0  0  0  0  0  0  0
   -3.0045    0.1862   -1.5206 H   0  0  0  0  0  0  0  0  0  0  0  0
   -1.4478    0.9972   -1.3940 H   0  0  0  0  0  0  0  0  0  0  0  0
  1  2  1  0
  1  9  1  1
  2 10  1  1
  2  3  1  0
  3  4  1  0
  3 13  1  1
  4 15  1  1
  4 14  1  0
  5 16  1  1
  5  4  1  0
  6 18  1  1
  6  5  1  0
  7  1  1  0
  8  1  1  0
 11  2  1  0
 12  3  1  0
 17  5  1  0
 19  6  1  0
 20  6  1  0
M  END
$$$$
