Coordinates from ORCA-job xad
     RDKit          3D

 28 27  0  0  0  0  0  0  0  0999 V2000
    0.7050   -0.9020    0.4300 N   0  0  0  0  0  0  0  0  0  0  0  0
   -0.4830   -0.3100   -0.1700 C   0  0  2  0  0  0  0  0  0  0  0  0
   -0.5490    1.1570    0.2690 C   0  0  0  0  0  0  0  0  0  0  0  0
   -1.2150    1.5290    1.2300 O   0  0  0  0  0  0  0  0  0  0  0  0
   -1.7400   -1.0820    0.2050 C   0  0  1  0  0  0  0  0  0  0  0  0
   -2.9450   -0.4690   -0.5020 C   0  0  2  0  0  0  0  0  0  0  0  0
   -1.6060   -2.5560   -0.1610 C   0  0  1  0  0  0  0  0  0  0  0  0
    0.6340   -1.2700    1.3650 H   0  0  0  0  0  0  0  0  0  0  0  0
   -0.3310   -0.3580   -1.2500 H   0  0  0  0  0  0  0  0  0  0  0  0
   -1.8830   -0.9750    1.2830 H   0  0  0  0  0  0  0  0  0  0  0  0
   -3.0850    0.5710   -0.2180 H   0  0  0  0  0  0  0  0  0  0  0  0
   -3.8520   -1.0170   -0.2470 H   0  0  0  0  0  0  0  0  0  0  0  0
   -2.8160   -0.5260   -1.5840 H   0  0  0  0  0  0  0  0  0  0  0  0
   -0.7760   -3.0380    0.3500 H   0  0  0  0  0  0  0  0  0  0  0  0
   -2.5190   -3.0930    0.0960 H   0  0  0  0  0  0  0  0  0  0  0  0
   -1.4450   -2.6650   -1.2350 H   0  0  0  0  0  0  0  0  0  0  0  0
    0.2240    1.9750   -0.4820 N   0  0  0  0  0  0  0  0  0  0  0  0
    0.8920    1.5210   -1.0920 H   0  0  0  0  0  0  0  0  0  0  0  0
    0.4240    3.3560   -0.0960 C   0  0  1  0  0  0  0  0  0  0  0  0
    1.1690    3.4570    0.6940 H   0  0  0  0  0  0  0  0  0  0  0  0
    0.7420    3.9280   -0.9620 H   0  0  0  0  0  0  0  0  0  0  0  0
   -0.5170    3.7510    0.2750 H   0  0  0  0  0  0  0  0  0  0  0  0
    1.9320   -0.7670   -0.1330 C   0  0  0  0  0  0  0  0  0  0  0  0
    2.1060   -0.1730   -1.1970 O   0  0  0  0  0  0  0  0  0  0  0  0
    3.0720   -1.4110    0.6140 C   0  0  2  0  0  0  0  0  0  0  0  0
    3.5330   -2.1510   -0.0350 H   0  0  0  0  0  0  0  0  0  0  0  0
    2.7630   -1.8890    1.5400 H   0  0  0  0  0  0  0  0  0  0  0  0
    3.8180   -0.6510    0.8310 H   0  0  0  0  0  0  0  0  0  0  0  0
  1  2  1  0
  1 23  1  0
  1  8  1  0
  2  9  1  6
  2  5  1  0
  2  3  1  0
  3 17  1  0
  3  4  1  0
  5  6  1  0
  5  7  1  0
  5 10  1  1
  6 13  1  6
  6 12  1  0
  6 11  1  0
  7 16  1  6
  7 15  1  0
  7 14  1  0
 17 18  1  0
 17 19  1  0
 19 21  1  6
 19 22  1  0
 19 20  1  0
 23 24  1  0
 23 25  1  0
 25 26  1  6
 25 28  1  0
 25 27  1  0
M  END
$$$$
