-42.53842880
     RDKit          3D

 29 28  0  0  1  0  0  0  0  0999 V2000
    1.0995   -0.1566    0.4114 N   0  0  0  0  0  0  0  0  0  0  0  0
    0.8916   -0.3092    1.3898 H   0  0  0  0  0  0  0  0  0  0  0  0
    0.3998    0.9486   -0.1929 C   0  0  1  0  0  0  0  0  0  0  0  0
    1.0975    1.4564   -0.8708 H   0  0  0  0  0  0  0  0  0  0  0  0
   -0.8108    0.4722   -1.0240 C   0  0  2  0  0  0  0  0  0  0  0  0
   -0.4247   -0.1524   -1.8314 H   0  0  0  0  0  0  0  0  0  0  0  0
   -1.2965    1.3396   -1.4757 H   0  0  0  0  0  0  0  0  0  0  0  0
   -1.8552   -0.2921   -0.2214 C   0  0  2  0  0  0  0  0  0  0  0  0
   -2.7656   -0.4091   -0.8122 H   0  0  0  0  0  0  0  0  0  0  0  0
   -2.0980    0.2281    0.7050 H   0  0  0  0  0  0  0  0  0  0  0  0
   -1.3635   -1.9657    0.3157 S   0  0  0  0  0  0  0  0  0  0  0  0
   -1.1167   -2.7761   -1.2904 C   0  0  2  0  0  0  0  0  0  0  0  0
   -1.9763   -2.5837   -1.9261 H   0  0  0  0  0  0  0  0  0  0  0  0
   -1.0365   -3.8390   -1.0880 H   0  0  0  0  0  0  0  0  0  0  0  0
   -0.2002   -2.4220   -1.7537 H   0  0  0  0  0  0  0  0  0  0  0  0
   -0.0374    1.8783    0.9358 C   0  0  0  0  0  0  0  0  0  0  0  0
   -0.0857    1.4923    2.0886 O   0  0  0  0  0  0  0  0  0  0  0  0
   -0.3814    3.1418    0.6193 N   0  0  0  0  0  0  0  0  0  0  0  0
   -0.6997    3.6871    1.4098 H   0  0  0  0  0  0  0  0  0  0  0  0
    1.8327   -1.0319   -0.3051 C   0  0  0  0  0  0  0  0  0  0  0  0
    2.0085   -0.9076   -1.5027 O   0  0  0  0  0  0  0  0  0  0  0  0
    2.3968   -2.1644    0.5206 C   0  0  2  0  0  0  0  0  0  0  0  0
    3.0338   -2.7866   -0.1011 H   0  0  0  0  0  0  0  0  0  0  0  0
    1.5764   -2.7625    0.9129 H   0  0  0  0  0  0  0  0  0  0  0  0
    2.9713   -1.7715    1.3555 H   0  0  0  0  0  0  0  0  0  0  0  0
   -0.3920    3.8122   -0.6561 C   0  0  1  0  0  0  0  0  0  0  0  0
   -0.0574    4.8412   -0.5229 H   0  0  0  0  0  0  0  0  0  0  0  0
    0.2789    3.3203   -1.3558 H   0  0  0  0  0  0  0  0  0  0  0  0
   -1.3983    3.8304   -1.0858 H   0  0  0  0  0  0  0  0  0  0  0  0
  1  2  1  0
  3  4  1  6
  3  1  1  0
  3 16  1  0
  5  8  1  0
  5  3  1  0
  5  6  1  6
  7  5  1  0
  8 11  1  0
  8 10  1  1
  9  8  1  0
 12 14  1  1
 12 11  1  0
 13 12  1  0
 15 12  1  0
 16 17  2  0
 18 16  1  0
 18 19  1  0
 20  1  1  0
 20 22  1  0
 21 20  2  0
 22 24  1  1
 22 25  1  0
 23 22  1  0
 26 27  1  1
 26 18  1  0
 28 26  1  0
 29 26  1  0
M  END
$$$$
