-42.53838706
     RDKit          3D

 29 28  0  0  1  0  0  0  0  0999 V2000
    0.7135   -0.1070    0.3739 N   0  0  0  0  0  0  0  0  0  0  0  0
    0.5940   -0.6927    1.1860 H   0  0  0  0  0  0  0  0  0  0  0  0
   -0.2789    0.9300    0.1845 C   0  0  1  0  0  0  0  0  0  0  0  0
   -0.1361    1.3247   -0.8260 H   0  0  0  0  0  0  0  0  0  0  0  0
   -1.6978    0.3702    0.3271 C   0  0  2  0  0  0  0  0  0  0  0  0
   -2.4015    1.1886    0.1622 H   0  0  0  0  0  0  0  0  0  0  0  0
   -1.8408    0.0145    1.3493 H   0  0  0  0  0  0  0  0  0  0  0  0
   -1.9868   -0.7452   -0.6663 C   0  0  2  0  0  0  0  0  0  0  0  0
   -1.5352   -0.5295   -1.6361 H   0  0  0  0  0  0  0  0  0  0  0  0
   -3.0626   -0.8801   -0.7875 H   0  0  0  0  0  0  0  0  0  0  0  0
   -1.3188   -2.3560   -0.1047 S   0  0  0  0  0  0  0  0  0  0  0  0
   -1.5762   -3.2966   -1.6320 C   0  0  2  0  0  0  0  0  0  0  0  0
   -0.9817   -2.8579   -2.4293 H   0  0  0  0  0  0  0  0  0  0  0  0
   -2.6318   -3.2887   -1.8900 H   0  0  0  0  0  0  0  0  0  0  0  0
   -1.2489   -4.3126   -1.4384 H   0  0  0  0  0  0  0  0  0  0  0  0
   -0.0433    2.0265    1.2352 C   0  0  0  0  0  0  0  0  0  0  0  0
   -0.6457    2.0437    2.2911 O   0  0  0  0  0  0  0  0  0  0  0  0
    0.9019    2.9433    0.9586 N   0  0  0  0  0  0  0  0  0  0  0  0
    1.0084    3.6488    1.6761 H   0  0  0  0  0  0  0  0  0  0  0  0
    1.5986   -0.4655   -0.5814 C   0  0  0  0  0  0  0  0  0  0  0  0
    1.7406    0.1703   -1.6093 O   0  0  0  0  0  0  0  0  0  0  0  0
    2.3939   -1.7008   -0.2355 C   0  0  2  0  0  0  0  0  0  0  0  0
    1.7163   -2.5442   -0.1172 H   0  0  0  0  0  0  0  0  0  0  0  0
    2.9301   -1.5514    0.6986 H   0  0  0  0  0  0  0  0  0  0  0  0
    3.1028   -1.9113   -1.0307 H   0  0  0  0  0  0  0  0  0  0  0  0
    1.6711    3.1461   -0.2470 C   0  0  1  0  0  0  0  0  0  0  0  0
    1.8185    2.2134   -0.7869 H   0  0  0  0  0  0  0  0  0  0  0  0
    1.1771    3.8633   -0.9099 H   0  0  0  0  0  0  0  0  0  0  0  0
    2.6491    3.5426    0.0225 H   0  0  0  0  0  0  0  0  0  0  0  0
  1  2  1  0
  3  4  1  6
  3  5  1  0
  3  1  1  0
  3 16  1  0
  5  7  1  1
  6  5  1  0
  8 11  1  0
  8  5  1  0
  8  9  1  6
 10  8  1  0
 12 15  1  1
 12 11  1  0
 13 12  1  0
 14 12  1  0
 16 17  2  0
 18 16  1  0
 18 19  1  0
 20 22  1  0
 20  1  1  0
 21 20  2  0
 22 23  1  1
 22 24  1  0
 25 22  1  0
 26 29  1  1
 26 18  1  0
 27 26  1  0
 28 26  1  0
M  END
$$$$
