-42.53803845
     RDKit          3D

 29 28  0  0  1  0  0  0  0  0999 V2000
    1.5652   -0.2457    0.4945 N   0  0  0  0  0  0  0  0  0  0  0  0
    1.5908   -0.2838    1.5063 H   0  0  0  0  0  0  0  0  0  0  0  0
    0.7306    0.8039   -0.0412 C   0  0  1  0  0  0  0  0  0  0  0  0
    1.3060    1.3498   -0.8000 H   0  0  0  0  0  0  0  0  0  0  0  0
   -0.5243    0.2141   -0.7149 C   0  0  2  0  0  0  0  0  0  0  0  0
   -0.1733   -0.4505   -1.5065 H   0  0  0  0  0  0  0  0  0  0  0  0
   -1.1157    1.0065   -1.1732 H   0  0  0  0  0  0  0  0  0  0  0  0
   -1.3906   -0.5563    0.2688 C   0  0  2  0  0  0  0  0  0  0  0  0
   -1.7819    0.0992    1.0466 H   0  0  0  0  0  0  0  0  0  0  0  0
   -0.8382   -1.3704    0.7374 H   0  0  0  0  0  0  0  0  0  0  0  0
   -2.8541   -1.2768   -0.5439 S   0  0  0  0  0  0  0  0  0  0  0  0
   -2.0858   -2.7090   -1.3509 C   0  0  2  0  0  0  0  0  0  0  0  0
   -1.6515   -3.3574   -0.5948 H   0  0  0  0  0  0  0  0  0  0  0  0
   -1.3281   -2.3796   -2.0553 H   0  0  0  0  0  0  0  0  0  0  0  0
   -2.8777   -3.2309   -1.8773 H   0  0  0  0  0  0  0  0  0  0  0  0
    0.3689    1.7164    1.1284 C   0  0  0  0  0  0  0  0  0  0  0  0
    0.5525    1.3585    2.2787 O   0  0  0  0  0  0  0  0  0  0  0  0
   -0.1551    2.9235    0.8564 N   0  0  0  0  0  0  0  0  0  0  0  0
   -0.4146    3.4525    1.6787 H   0  0  0  0  0  0  0  0  0  0  0  0
    2.3061   -1.0639   -0.2818 C   0  0  0  0  0  0  0  0  0  0  0  0
    2.2930   -0.9993   -1.4943 O   0  0  0  0  0  0  0  0  0  0  0  0
    3.1344   -2.0583    0.5032 C   0  0  2  0  0  0  0  0  0  0  0  0
    2.4908   -2.6704    1.1310 H   0  0  0  0  0  0  0  0  0  0  0  0
    3.8399   -1.5299    1.1403 H   0  0  0  0  0  0  0  0  0  0  0  0
    3.6797   -2.6961   -0.1861 H   0  0  0  0  0  0  0  0  0  0  0  0
   -0.4518    3.5383   -0.4131 C   0  0  1  0  0  0  0  0  0  0  0  0
   -0.2592    4.6088   -0.3433 H   0  0  0  0  0  0  0  0  0  0  0  0
    0.1785    3.1248   -1.1965 H   0  0  0  0  0  0  0  0  0  0  0  0
   -1.5005    3.3934   -0.6886 H   0  0  0  0  0  0  0  0  0  0  0  0
  1  2  1  0
  3  4  1  6
  3  1  1  0
  3 16  1  0
  5  3  1  0
  5  8  1  0
  5  6  1  6
  7  5  1  0
  8 10  1  1
  8  9  1  0
 11  8  1  0
 12 13  1  1
 12 11  1  0
 14 12  1  0
 15 12  1  0
 16 17  2  0
 18 16  1  0
 18 19  1  0
 20  1  1  0
 20 22  1  0
 21 20  2  0
 22 23  1  1
 22 24  1  0
 25 22  1  0
 26 27  1  1
 26 18  1  0
 28 26  1  0
 29 26  1  0
M  END
$$$$
