-42.53621427
     RDKit          3D

 29 28  0  0  1  0  0  0  0  0999 V2000
    1.6965   -0.6058    0.3978 N   0  0  0  0  0  0  0  0  0  0  0  0
    1.9988   -1.1525    1.1890 H   0  0  0  0  0  0  0  0  0  0  0  0
    0.2753   -0.3275    0.3139 C   0  0  1  0  0  0  0  0  0  0  0  0
    0.0961    0.0910   -0.6783 H   0  0  0  0  0  0  0  0  0  0  0  0
   -0.5155   -1.6254    0.4960 C   0  0  2  0  0  0  0  0  0  0  0  0
   -0.3280   -2.0013    1.5055 H   0  0  0  0  0  0  0  0  0  0  0  0
   -0.1608   -2.3600   -0.2293 H   0  0  0  0  0  0  0  0  0  0  0  0
   -2.0184   -1.4446    0.3404 C   0  0  2  0  0  0  0  0  0  0  0  0
   -2.3913   -0.6582    0.9941 H   0  0  0  0  0  0  0  0  0  0  0  0
   -2.5219   -2.3781    0.5915 H   0  0  0  0  0  0  0  0  0  0  0  0
   -2.5609   -1.0729   -1.3641 S   0  0  0  0  0  0  0  0  0  0  0  0
   -2.6222    0.7451   -1.3682 C   0  0  2  0  0  0  0  0  0  0  0  0
   -3.3642    1.0279   -2.1084 H   0  0  0  0  0  0  0  0  0  0  0  0
   -1.6568    1.1579   -1.6444 H   0  0  0  0  0  0  0  0  0  0  0  0
   -2.9265    1.0944   -0.3867 H   0  0  0  0  0  0  0  0  0  0  0  0
   -0.0913    0.6693    1.4259 C   0  0  0  0  0  0  0  0  0  0  0  0
   -0.4550    0.2864    2.5233 O   0  0  0  0  0  0  0  0  0  0  0  0
    0.0386    1.9824    1.1672 N   0  0  0  0  0  0  0  0  0  0  0  0
   -0.2214    2.5738    1.9467 H   0  0  0  0  0  0  0  0  0  0  0  0
    2.5981   -0.1778   -0.5132 C   0  0  0  0  0  0  0  0  0  0  0  0
    2.2880    0.5217   -1.4572 O   0  0  0  0  0  0  0  0  0  0  0  0
    4.0098   -0.6441   -0.2407 C   0  0  2  0  0  0  0  0  0  0  0  0
    4.0543   -1.7306   -0.2649 H   0  0  0  0  0  0  0  0  0  0  0  0
    4.3352   -0.3020    0.7393 H   0  0  0  0  0  0  0  0  0  0  0  0
    4.6723   -0.2417   -1.0011 H   0  0  0  0  0  0  0  0  0  0  0  0
    0.4576    2.6746   -0.0288 C   0  0  1  0  0  0  0  0  0  0  0  0
    1.0229    2.0208   -0.6898 H   0  0  0  0  0  0  0  0  0  0  0  0
   -0.4067    3.0732   -0.5681 H   0  0  0  0  0  0  0  0  0  0  0  0
    1.1009    3.5087    0.2515 H   0  0  0  0  0  0  0  0  0  0  0  0
  1  2  1  0
  3  4  1  6
  3  1  1  0
  3  5  1  0
  3 16  1  0
  5  6  1  1
  7  5  1  0
  8  5  1  0
  8 10  1  1
  8  9  1  0
 11  8  1  0
 12 11  1  0
 12 15  1  1
 13 12  1  0
 14 12  1  0
 16 17  2  0
 18 16  1  0
 18 19  1  0
 20 22  1  0
 20  1  1  0
 21 20  2  0
 22 24  1  1
 23 22  1  0
 25 22  1  0
 26 29  1  1
 26 18  1  0
 27 26  1  0
 28 26  1  0
M  END
$$$$
