-42.53600885
     RDKit          3D

 29 28  0  0  1  0  0  0  0  0999 V2000
    1.5719   -0.3839    0.4656 N   0  0  0  0  0  0  0  0  0  0  0  0
    1.9299   -0.7970    1.3128 H   0  0  0  0  0  0  0  0  0  0  0  0
    0.1650   -0.0399    0.4617 C   0  0  1  0  0  0  0  0  0  0  0  0
   -0.0666    0.3364   -0.5426 H   0  0  0  0  0  0  0  0  0  0  0  0
   -0.7101   -1.2670    0.7475 C   0  0  2  0  0  0  0  0  0  0  0  0
   -1.5488   -0.9570    1.3730 H   0  0  0  0  0  0  0  0  0  0  0  0
   -0.1384   -2.0015    1.3209 H   0  0  0  0  0  0  0  0  0  0  0  0
   -1.2125   -1.9198   -0.5304 C   0  0  2  0  0  0  0  0  0  0  0  0
   -1.7908   -2.8182   -0.3115 H   0  0  0  0  0  0  0  0  0  0  0  0
   -0.3830   -2.1786   -1.1883 H   0  0  0  0  0  0  0  0  0  0  0  0
   -2.2626   -0.8124   -1.5287 S   0  0  0  0  0  0  0  0  0  0  0  0
   -3.6958   -0.6466   -0.4266 C   0  0  2  0  0  0  0  0  0  0  0  0
   -4.0511   -1.6340   -0.1462 H   0  0  0  0  0  0  0  0  0  0  0  0
   -4.4594   -0.1244   -0.9929 H   0  0  0  0  0  0  0  0  0  0  0  0
   -3.4283   -0.0666    0.4518 H   0  0  0  0  0  0  0  0  0  0  0  0
   -0.1077    1.0700    1.4890 C   0  0  0  0  0  0  0  0  0  0  0  0
   -0.7893    0.8842    2.4799 O   0  0  0  0  0  0  0  0  0  0  0  0
    0.4439    2.2725    1.2494 N   0  0  0  0  0  0  0  0  0  0  0  0
    0.2576    2.9573    1.9710 H   0  0  0  0  0  0  0  0  0  0  0  0
    2.3647   -0.3196   -0.6304 C   0  0  0  0  0  0  0  0  0  0  0  0
    1.9879    0.1488   -1.6834 O   0  0  0  0  0  0  0  0  0  0  0  0
    3.7589   -0.8618   -0.4004 C   0  0  2  0  0  0  0  0  0  0  0  0
    3.7116   -1.9263   -0.1800 H   0  0  0  0  0  0  0  0  0  0  0  0
    4.2303   -0.3517    0.4366 H   0  0  0  0  0  0  0  0  0  0  0  0
    4.3529   -0.7105   -1.2966 H   0  0  0  0  0  0  0  0  0  0  0  0
    1.2712    2.7200    0.1564 C   0  0  1  0  0  0  0  0  0  0  0  0
    0.9607    3.7218   -0.1409 H   0  0  0  0  0  0  0  0  0  0  0  0
    2.3229    2.7572    0.4556 H   0  0  0  0  0  0  0  0  0  0  0  0
    1.1820    2.0618   -0.7036 H   0  0  0  0  0  0  0  0  0  0  0  0
  1  2  1  0
  3  4  1  6
  3  1  1  0
  3  5  1  0
  3 16  1  0
  5  7  1  1
  5  6  1  0
  8  9  1  1
  8  5  1  0
 10  8  1  0
 11  8  1  0
 11 12  1  0
 12 13  1  1
 12 15  1  0
 14 12  1  0
 16 17  2  0
 18 16  1  0
 18 19  1  0
 20 22  1  0
 20  1  1  0
 21 20  2  0
 22 23  1  1
 22 24  1  0
 25 22  1  0
 26 28  1  1
 26 18  1  0
 27 26  1  0
 29 26  1  0
M  END
$$$$
