-42.53539744
     RDKit          3D

 29 28  0  0  1  0  0  0  0  0999 V2000
    1.3359   -0.6018    0.0287 N   0  0  0  0  0  0  0  0  0  0  0  0
    1.0802   -1.1613    0.8277 H   0  0  0  0  0  0  0  0  0  0  0  0
    0.3875    0.4239   -0.3600 C   0  0  1  0  0  0  0  0  0  0  0  0
    0.7910    0.8756   -1.2682 H   0  0  0  0  0  0  0  0  0  0  0  0
   -0.9948   -0.1639   -0.6803 C   0  0  2  0  0  0  0  0  0  0  0  0
   -0.8912   -0.8104   -1.5551 H   0  0  0  0  0  0  0  0  0  0  0  0
   -1.6591    0.6623   -0.9443 H   0  0  0  0  0  0  0  0  0  0  0  0
   -1.6193   -0.9438    0.4682 C   0  0  2  0  0  0  0  0  0  0  0  0
   -1.6047   -0.3538    1.3838 H   0  0  0  0  0  0  0  0  0  0  0  0
   -1.1135   -1.8945    0.6398 H   0  0  0  0  0  0  0  0  0  0  0  0
   -3.3766   -1.3158    0.1662 S   0  0  0  0  0  0  0  0  0  0  0  0
   -3.2210   -2.6020   -1.1083 C   0  0  2  0  0  0  0  0  0  0  0  0
   -2.8345   -2.1747   -2.0288 H   0  0  0  0  0  0  0  0  0  0  0  0
   -4.2190   -2.9921   -1.2761 H   0  0  0  0  0  0  0  0  0  0  0  0
   -2.5703   -3.3931   -0.7463 H   0  0  0  0  0  0  0  0  0  0  0  0
    0.3213    1.4591    0.7707 C   0  0  0  0  0  0  0  0  0  0  0  0
   -0.0407    1.1552    1.8938 O   0  0  0  0  0  0  0  0  0  0  0  0
    0.7154    2.7109    0.4821 N   0  0  0  0  0  0  0  0  0  0  0  0
    0.6729    3.3477    1.2659 H   0  0  0  0  0  0  0  0  0  0  0  0
    2.6439   -0.5004   -0.3169 C   0  0  0  0  0  0  0  0  0  0  0  0
    3.0490    0.3414   -1.0930 O   0  0  0  0  0  0  0  0  0  0  0  0
    3.5248   -1.5503    0.3202 C   0  0  2  0  0  0  0  0  0  0  0  0
    3.1098   -2.5425    0.1602 H   0  0  0  0  0  0  0  0  0  0  0  0
    3.5924   -1.3676    1.3910 H   0  0  0  0  0  0  0  0  0  0  0  0
    4.5193   -1.4970   -0.1125 H   0  0  0  0  0  0  0  0  0  0  0  0
    1.2995    3.2094   -0.7438 C   0  0  1  0  0  0  0  0  0  0  0  0
    2.1229    2.5706   -1.0711 H   0  0  0  0  0  0  0  0  0  0  0  0
    0.5527    3.2711   -1.5394 H   0  0  0  0  0  0  0  0  0  0  0  0
    1.6890    4.2075   -0.5607 H   0  0  0  0  0  0  0  0  0  0  0  0
  1  2  1  0
  3  4  1  6
  3  1  1  0
  3 16  1  0
  5  3  1  0
  5  8  1  0
  5  6  1  6
  7  5  1  0
  8 10  1  1
  8  9  1  0
 11  8  1  0
 12 15  1  1
 12 11  1  0
 13 12  1  0
 14 12  1  0
 16 17  2  0
 18 16  1  0
 18 19  1  0
 20  1  1  0
 20 22  1  0
 21 20  2  0
 22 24  1  1
 23 22  1  0
 25 22  1  0
 26 29  1  1
 26 18  1  0
 27 26  1  0
 28 26  1  0
M  END
$$$$
