-42.53973524
     RDKit          3D

 29 28  0  0  1  0  0  0  0  0999 V2000
    0.7518   -0.1580    0.2522 N   0  0  0  0  0  0  0  0  0  0  0  0
    0.4367   -0.7675    0.9912 H   0  0  0  0  0  0  0  0  0  0  0  0
   -0.1735    0.8699   -0.1754 C   0  0  1  0  0  0  0  0  0  0  0  0
    0.1953    1.2491   -1.1322 H   0  0  0  0  0  0  0  0  0  0  0  0
   -1.5889    0.3065   -0.3404 C   0  0  2  0  0  0  0  0  0  0  0  0
   -2.2127    1.0843   -0.7865 H   0  0  0  0  0  0  0  0  0  0  0  0
   -1.9931    0.0964    0.6523 H   0  0  0  0  0  0  0  0  0  0  0  0
   -1.6339   -0.9364   -1.2183 C   0  0  2  0  0  0  0  0  0  0  0  0
   -0.9178   -0.8613   -2.0364 H   0  0  0  0  0  0  0  0  0  0  0  0
   -2.6307   -1.0883   -1.6319 H   0  0  0  0  0  0  0  0  0  0  0  0
   -1.1998   -2.4766   -0.3379 S   0  0  0  0  0  0  0  0  0  0  0  0
   -2.7470   -2.7596    0.5668 C   0  0  2  0  0  0  0  0  0  0  0  0
   -3.5617   -2.8845   -0.1413 H   0  0  0  0  0  0  0  0  0  0  0  0
   -2.9446   -1.9271    1.2360 H   0  0  0  0  0  0  0  0  0  0  0  0
   -2.6108   -3.6702    1.1403 H   0  0  0  0  0  0  0  0  0  0  0  0
   -0.1908    1.9792    0.8902 C   0  0  0  0  0  0  0  0  0  0  0  0
   -0.9636    1.9451    1.8299 O   0  0  0  0  0  0  0  0  0  0  0  0
    0.7180    2.9615    0.7709 N   0  0  0  0  0  0  0  0  0  0  0  0
    0.6542    3.6686    1.4915 H   0  0  0  0  0  0  0  0  0  0  0  0
    1.8914   -0.4492   -0.4106 C   0  0  0  0  0  0  0  0  0  0  0  0
    2.3014    0.2322   -1.3315 O   0  0  0  0  0  0  0  0  0  0  0  0
    2.5979   -1.6760    0.1128 C   0  0  2  0  0  0  0  0  0  0  0  0
    2.8332   -1.5530    1.1674 H   0  0  0  0  0  0  0  0  0  0  0  0
    3.5148   -1.8323   -0.4473 H   0  0  0  0  0  0  0  0  0  0  0  0
    1.9486   -2.5416   -0.0031 H   0  0  0  0  0  0  0  0  0  0  0  0
    1.6759    3.2066   -0.2830 C   0  0  1  0  0  0  0  0  0  0  0  0
    2.5222    3.7495    0.1340 H   0  0  0  0  0  0  0  0  0  0  0  0
    2.0443    2.2743   -0.7085 H   0  0  0  0  0  0  0  0  0  0  0  0
    1.2351    3.8114   -1.0813 H   0  0  0  0  0  0  0  0  0  0  0  0
  1  2  1  0
  3  4  1  6
  3  1  1  0
  3 16  1  0
  5  3  1  0
  5  7  1  1
  6  5  1  0
  8  5  1  0
  8 11  1  0
  8  9  1  6
 10  8  1  0
 11 12  1  0
 12 15  1  1
 12 14  1  0
 13 12  1  0
 16 17  2  0
 18 16  1  0
 18 19  1  0
 20 22  1  0
 20  1  1  0
 21 20  2  0
 22 23  1  1
 24 22  1  0
 25 22  1  0
 26 27  1  1
 26 18  1  0
 28 26  1  0
 29 26  1  0
M  END
$$$$
