-42.45798112
     RDKit          3D

 31 30  0  0  1  0  0  0  0  0999 V2000
    1.2636    0.4352   -0.1941 N   0  0  0  0  0  0  0  0  0  0  0  0
    0.0260   -0.0134    0.3927 C   0  0  2  0  0  0  0  0  0  0  0  0
   -0.7157   -0.9207   -0.5982 C   0  0  0  0  0  0  0  0  0  0  0  0
   -0.5853   -0.8053   -1.7982 O   0  0  0  0  0  0  0  0  0  0  0  0
   -0.8521    1.1987    0.7893 C   0  0  2  0  0  0  0  0  0  0  0  0
   -1.3837    1.9706   -0.4317 C   0  0  2  0  0  0  0  0  0  0  0  0
   -0.0595    2.1056    1.7312 C   0  0  1  0  0  0  0  0  0  0  0  0
   -2.8363    1.6300   -0.7472 C   0  0  2  0  0  0  0  0  0  0  0  0
    1.1842    1.1762   -0.8775 H   0  0  0  0  0  0  0  0  0  0  0  0
    0.2622   -0.5769    1.2985 H   0  0  0  0  0  0  0  0  0  0  0  0
   -1.7130    0.8089    1.3433 H   0  0  0  0  0  0  0  0  0  0  0  0
   -0.7818    1.7474   -1.3130 H   0  0  0  0  0  0  0  0  0  0  0  0
   -1.3062    3.0423   -0.2409 H   0  0  0  0  0  0  0  0  0  0  0  0
   -0.6862    2.9238    2.0773 H   0  0  0  0  0  0  0  0  0  0  0  0
    0.2865    1.5494    2.6003 H   0  0  0  0  0  0  0  0  0  0  0  0
    0.8078    2.5222    1.2261 H   0  0  0  0  0  0  0  0  0  0  0  0
   -3.1822    2.2144   -1.5961 H   0  0  0  0  0  0  0  0  0  0  0  0
   -3.4790    1.8489    0.1039 H   0  0  0  0  0  0  0  0  0  0  0  0
   -2.9374    0.5773   -0.9991 H   0  0  0  0  0  0  0  0  0  0  0  0
   -1.5378   -1.8598   -0.0751 N   0  0  0  0  0  0  0  0  0  0  0  0
   -1.9667   -2.4599   -0.7659 H   0  0  0  0  0  0  0  0  0  0  0  0
   -1.7223   -2.2216    1.3094 C   0  0  1  0  0  0  0  0  0  0  0  0
   -0.8404   -2.7262    1.7171 H   0  0  0  0  0  0  0  0  0  0  0  0
   -1.9369   -1.3433    1.9180 H   0  0  0  0  0  0  0  0  0  0  0  0
   -2.5687   -2.9004    1.3829 H   0  0  0  0  0  0  0  0  0  0  0  0
    2.4647   -0.1909   -0.1908 C   0  0  0  0  0  0  0  0  0  0  0  0
    3.4004    0.2604   -0.8160 O   0  0  0  0  0  0  0  0  0  0  0  0
    2.5743   -1.4379    0.6626 C   0  0  2  0  0  0  0  0  0  0  0  0
    2.3852   -1.2048    1.7086 H   0  0  0  0  0  0  0  0  0  0  0  0
    3.5816   -1.8321    0.5652 H   0  0  0  0  0  0  0  0  0  0  0  0
    1.8618   -2.1871    0.3240 H   0  0  0  0  0  0  0  0  0  0  0  0
  1 26  1  0
  1  2  1  0
  2  5  1  0
  2 10  1  1
  3 20  1  0
  3  2  1  0
  4  3  2  0
  5 11  1  1
  5  7  1  0
  6 13  1  1
  6  5  1  0
  7 14  1  1
  7 15  1  0
  8  6  1  0
  8 18  1  1
  9  1  1  0
 12  6  1  0
 16  7  1  0
 17  8  1  0
 19  8  1  0
 20 22  1  0
 21 20  1  0
 22 25  1  6
 22 23  1  0
 22 24  1  0
 26 28  1  0
 27 26  2  0
 28 29  1  1
 30 28  1  0
 31 28  1  0
M  END
$$$$
