-42.45445044
     RDKit          3D

 31 30  0  0  1  0  0  0  0  0999 V2000
    0.8011    0.0350    0.8017 N   0  0  0  0  0  0  0  0  0  0  0  0
   -0.6307   -0.1282    0.6474 C   0  0  2  0  0  0  0  0  0  0  0  0
   -1.0211   -1.1935   -0.3837 C   0  0  0  0  0  0  0  0  0  0  0  0
   -1.7116   -0.9650   -1.3557 O   0  0  0  0  0  0  0  0  0  0  0  0
   -1.4110    1.1923    0.4285 C   0  0  2  0  0  0  0  0  0  0  0  0
   -1.0302    1.9918   -0.8279 C   0  0  2  0  0  0  0  0  0  0  0  0
   -1.3475    2.0518    1.6903 C   0  0  1  0  0  0  0  0  0  0  0  0
    0.2384    2.8353   -0.7426 C   0  0  2  0  0  0  0  0  0  0  0  0
    1.0756    0.4234    1.6955 H   0  0  0  0  0  0  0  0  0  0  0  0
   -0.9893   -0.5305    1.6087 H   0  0  0  0  0  0  0  0  0  0  0  0
   -2.4504    0.8758    0.2830 H   0  0  0  0  0  0  0  0  0  0  0  0
   -1.8642    2.6650   -1.0429 H   0  0  0  0  0  0  0  0  0  0  0  0
   -0.9640    1.2996   -1.6668 H   0  0  0  0  0  0  0  0  0  0  0  0
   -1.7629    1.5161    2.5422 H   0  0  0  0  0  0  0  0  0  0  0  0
   -0.3239    2.3319    1.9245 H   0  0  0  0  0  0  0  0  0  0  0  0
   -1.9259    2.9612    1.5480 H   0  0  0  0  0  0  0  0  0  0  0  0
    1.1148    2.2441   -0.4983 H   0  0  0  0  0  0  0  0  0  0  0  0
    0.1342    3.6214    0.0010 H   0  0  0  0  0  0  0  0  0  0  0  0
    0.4147    3.3105   -1.7054 H   0  0  0  0  0  0  0  0  0  0  0  0
   -0.5981   -2.4489   -0.1209 N   0  0  0  0  0  0  0  0  0  0  0  0
   -0.9376   -3.1404   -0.7751 H   0  0  0  0  0  0  0  0  0  0  0  0
    0.0945   -2.9347    1.0484 C   0  0  1  0  0  0  0  0  0  0  0  0
   -0.5603   -2.9426    1.9258 H   0  0  0  0  0  0  0  0  0  0  0  0
    0.4285   -3.9522    0.8602 H   0  0  0  0  0  0  0  0  0  0  0  0
    0.9665   -2.3193    1.2675 H   0  0  0  0  0  0  0  0  0  0  0  0
    1.8498   -0.0424   -0.0603 C   0  0  0  0  0  0  0  0  0  0  0  0
    2.9590    0.2457    0.3466 O   0  0  0  0  0  0  0  0  0  0  0  0
    1.6068   -0.5339   -1.4634 C   0  0  2  0  0  0  0  0  0  0  0  0
    0.6755   -0.1626   -1.8748 H   0  0  0  0  0  0  0  0  0  0  0  0
    1.5852   -1.6222   -1.4667 H   0  0  0  0  0  0  0  0  0  0  0  0
    2.4381   -0.2081   -2.0836 H   0  0  0  0  0  0  0  0  0  0  0  0
  1  9  1  0
  2  1  1  0
  2 10  1  1
  3 20  1  0
  3  2  1  0
  4  3  2  0
  5 11  1  6
  5  2  1  0
  5  7  1  0
  6  8  1  0
  6  5  1  0
  7 15  1  1
  7 14  1  0
  8 17  1  1
  8 18  1  0
  6 12  1  6
 13  6  1  0
 16  7  1  0
 19  8  1  0
 20 22  1  0
 21 20  1  0
 22 25  1  1
 22 23  1  0
 24 22  1  0
 26 27  2  0
 26  1  1  0
 28 26  1  0
 28 29  1  6
 30 28  1  0
 31 28  1  0
M  END
$$$$
