-42.46024549
     RDKit          3D

 31 30  0  0  1  0  0  0  0  0999 V2000
    0.7715    0.2418   -0.6656 N   0  0  0  0  0  0  0  0  0  0  0  0
   -0.1888    0.2287    0.4123 C   0  0  2  0  0  0  0  0  0  0  0  0
   -0.5169   -1.2079    0.8623 C   0  0  0  0  0  0  0  0  0  0  0  0
   -0.5084   -1.4998    2.0430 O   0  0  0  0  0  0  0  0  0  0  0  0
   -1.4486    1.0433    0.0500 C   0  0  2  0  0  0  0  0  0  0  0  0
   -1.2181    2.5467    0.2591 C   0  0  2  0  0  0  0  0  0  0  0  0
   -2.6445    0.5928    0.8898 C   0  0  1  0  0  0  0  0  0  0  0  0
   -0.1549    3.1561   -0.6476 C   0  0  2  0  0  0  0  0  0  0  0  0
    0.4281    0.4578   -1.5909 H   0  0  0  0  0  0  0  0  0  0  0  0
    0.2617    0.6907    1.3006 H   0  0  0  0  0  0  0  0  0  0  0  0
   -1.6841    0.8796   -1.0083 H   0  0  0  0  0  0  0  0  0  0  0  0
   -0.9500    2.7211    1.3031 H   0  0  0  0  0  0  0  0  0  0  0  0
   -2.1651    3.0600    0.0756 H   0  0  0  0  0  0  0  0  0  0  0  0
   -3.5035    1.2292    0.6898 H   0  0  0  0  0  0  0  0  0  0  0  0
   -2.9222   -0.4339    0.6646 H   0  0  0  0  0  0  0  0  0  0  0  0
   -2.4068    0.6539    1.9487 H   0  0  0  0  0  0  0  0  0  0  0  0
   -0.1035    4.2299   -0.4830 H   0  0  0  0  0  0  0  0  0  0  0  0
   -0.3988    2.9879   -1.6948 H   0  0  0  0  0  0  0  0  0  0  0  0
    0.8272    2.7368   -0.4497 H   0  0  0  0  0  0  0  0  0  0  0  0
   -0.7948   -2.1442   -0.0671 N   0  0  0  0  0  0  0  0  0  0  0  0
   -0.9196   -3.0677    0.3251 H   0  0  0  0  0  0  0  0  0  0  0  0
   -0.8217   -2.0508   -1.5073 C   0  0  1  0  0  0  0  0  0  0  0  0
   -1.3535   -1.1556   -1.8253 H   0  0  0  0  0  0  0  0  0  0  0  0
    0.1863   -2.0397   -1.9312 H   0  0  0  0  0  0  0  0  0  0  0  0
   -1.3517   -2.9165   -1.8999 H   0  0  0  0  0  0  0  0  0  0  0  0
    2.0751   -0.1297   -0.6221 C   0  0  0  0  0  0  0  0  0  0  0  0
    2.7259   -0.1825   -1.6468 O   0  0  0  0  0  0  0  0  0  0  0  0
    2.6388   -0.4351    0.7429 C   0  0  2  0  0  0  0  0  0  0  0  0
    2.0471   -1.1918    1.2515 H   0  0  0  0  0  0  0  0  0  0  0  0
    2.6370    0.4678    1.3512 H   0  0  0  0  0  0  0  0  0  0  0  0
    3.6609   -0.7847    0.6306 H   0  0  0  0  0  0  0  0  0  0  0  0
  1 26  1  0
  1  2  1  0
  2  3  1  0
  2 10  1  1
  3  4  2  0
  5 11  1  6
  5  6  1  0
  5  2  1  0
  5  7  1  0
  6 12  1  1
  7 16  1  1
  8 17  1  6
  8 19  1  0
  8  6  1  0
  9  1  1  0
 13  6  1  0
 14  7  1  0
 15  7  1  0
 18  8  1  0
 20 21  1  0
 20  3  1  0
 22 20  1  0
 22 23  1  1
 24 22  1  0
 25 22  1  0
 26 28  1  0
 27 26  2  0
 28 29  1  1
 28 30  1  0
 31 28  1  0
M  END
$$$$
