-43.65964997
     RDKit          3D

 27 28  0  0  1  0  0  0  0  0999 V2000
   -3.9949   -0.5022   -0.1004 C   0  0  0  0  0  0  0  0  0  0  0  0
   -3.0535   -1.5084    0.1355 C   0  0  0  0  0  0  0  0  0  0  0  0
   -3.6282    0.8255   -0.1353 C   0  0  0  0  0  0  0  0  0  0  0  0
   -1.7250   -1.2165    0.3453 C   0  0  0  0  0  0  0  0  0  0  0  0
   -1.3245    0.1188    0.3182 C   0  0  0  0  0  0  0  0  0  0  0  0
   -2.2885    1.1269    0.0753 C   0  0  0  0  0  0  0  0  0  0  0  0
   -1.6450    2.3307    0.0966 N   0  0  0  0  0  0  0  0  0  0  0  0
   -0.3164    2.1176    0.3467 C   0  0  0  0  0  0  0  0  0  0  0  0
   -0.0709    0.7833    0.4943 C   0  0  0  0  0  0  0  0  0  0  0  0
    1.2571    0.1616    0.7671 C   0  0  1  0  0  0  0  0  0  0  0  0
    1.8656   -0.4802   -0.5053 C   0  0  2  0  0  0  0  0  0  0  0  0
    1.2506   -1.7643   -0.7613 N   0  0  0  0  0  0  0  0  0  0  0  0
    3.3711   -0.5974   -0.3068 C   0  0  0  0  0  0  0  0  0  0  0  0
    4.0003    0.5803   -0.3945 O   0  0  0  0  0  0  0  0  0  0  0  0
    3.9493   -1.6290   -0.0839 O   0  0  0  0  0  0  0  0  0  0  0  0
    1.9386    0.9316    1.1331 H   0  0  0  0  0  0  0  0  0  0  0  0
    1.1612   -0.6176    1.5254 H   0  0  0  0  0  0  0  0  0  0  0  0
    1.6816    0.1880   -1.3525 H   0  0  0  0  0  0  0  0  0  0  0  0
    0.3682    2.9425    0.4096 H   0  0  0  0  0  0  0  0  0  0  0  0
   -2.0773    3.2283   -0.0387 H   0  0  0  0  0  0  0  0  0  0  0  0
   -0.9988   -1.9958    0.5082 H   0  0  0  0  0  0  0  0  0  0  0  0
   -4.3530    1.6054   -0.3199 H   0  0  0  0  0  0  0  0  0  0  0  0
   -3.3845   -2.5368    0.1503 H   0  0  0  0  0  0  0  0  0  0  0  0
    1.6029   -2.4406   -0.0892 H   0  0  0  0  0  0  0  0  0  0  0  0
    1.4969   -2.1036   -1.6846 H   0  0  0  0  0  0  0  0  0  0  0  0
   -5.0282   -0.7735   -0.2603 H   0  0  0  0  0  0  0  0  0  0  0  0
    4.9527    0.4682   -0.2423 H   0  0  0  0  0  0  0  0  0  0  0  0
  1  2  1  0
  2 23  1  0
  2  4  2  0
  3  1  2  0
  3  6  1  0
  4 21  1  0
  5  4  1  0
  5  9  1  0
  6  7  1  0
  6  5  2  0
  7  8  1  0
  8 19  1  0
  8  9  2  0
  9 10  1  0
 10 16  1  1
 10 17  1  0
 11 18  1  6
 11 13  1  0
 11 10  1  0
 12 11  1  0
 12 24  1  0
 13 15  2  0
 14 13  1  0
 14 27  1  0
 20  7  1  0
 22  3  1  0
 25 12  1  0
 26  1  1  0
M  END
$$$$
