-43.65948500
     RDKit          3D

 27 28  0  0  1  0  0  0  0  0999 V2000
   -3.9523   -0.5970    0.1025 C   0  0  0  0  0  0  0  0  0  0  0  0
   -2.9712   -1.5308    0.4491 C   0  0  0  0  0  0  0  0  0  0  0  0
   -3.6328    0.7227   -0.1325 C   0  0  0  0  0  0  0  0  0  0  0  0
   -1.6480   -1.1726    0.5738 C   0  0  0  0  0  0  0  0  0  0  0  0
   -1.2962    0.1574    0.3454 C   0  0  0  0  0  0  0  0  0  0  0  0
   -2.2991    1.0915   -0.0087 C   0  0  0  0  0  0  0  0  0  0  0  0
   -1.6954    2.3039   -0.1811 N   0  0  0  0  0  0  0  0  0  0  0  0
   -0.3536    2.1669    0.0533 C   0  0  0  0  0  0  0  0  0  0  0  0
   -0.0602    0.8759    0.3832 C   0  0  0  0  0  0  0  0  0  0  0  0
    1.2932    0.3379    0.7059 C   0  0  1  0  0  0  0  0  0  0  0  0
    1.7987   -0.6639   -0.3647 C   0  0  2  0  0  0  0  0  0  0  0  0
    1.3803   -2.0091   -0.0294 N   0  0  0  0  0  0  0  0  0  0  0  0
    3.3142   -0.5482   -0.4547 C   0  0  0  0  0  0  0  0  0  0  0  0
    3.7142    0.5627   -1.0842 O   0  0  0  0  0  0  0  0  0  0  0  0
    4.0859   -1.3555   -0.0063 O   0  0  0  0  0  0  0  0  0  0  0  0
    1.9902    1.1749    0.7774 H   0  0  0  0  0  0  0  0  0  0  0  0
    1.2736   -0.1847    1.6644 H   0  0  0  0  0  0  0  0  0  0  0  0
    1.3762   -0.3835   -1.3345 H   0  0  0  0  0  0  0  0  0  0  0  0
    0.3050    3.0111   -0.0269 H   0  0  0  0  0  0  0  0  0  0  0  0
   -2.1602    3.1597   -0.4305 H   0  0  0  0  0  0  0  0  0  0  0  0
   -0.8862   -1.8947    0.8206 H   0  0  0  0  0  0  0  0  0  0  0  0
   -4.3888    1.4456   -0.4038 H   0  0  0  0  0  0  0  0  0  0  0  0
   -3.2664   -2.5559    0.6197 H   0  0  0  0  0  0  0  0  0  0  0  0
    1.5439   -2.6391   -0.8073 H   0  0  0  0  0  0  0  0  0  0  0  0
    1.9385   -2.3451    0.7511 H   0  0  0  0  0  0  0  0  0  0  0  0
   -4.9797   -0.9193    0.0151 H   0  0  0  0  0  0  0  0  0  0  0  0
    4.6837    0.6105   -1.1050 H   0  0  0  0  0  0  0  0  0  0  0  0
  1  2  2  0
  2  4  1  0
  2 23  1  0
  3  6  2  0
  3  1  1  0
  4 21  1  0
  5  9  1  0
  5  4  2  0
  6  5  1  0
  7  6  1  0
  7  8  1  0
  8  9  2  0
  9 10  1  0
 10 16  1  1
 10 17  1  0
 11 18  1  6
 11 12  1  0
 11 10  1  0
 12 25  1  0
 13 11  1  0
 13 15  2  0
 14 13  1  0
 19  8  1  0
 20  7  1  0
 22  3  1  0
 24 12  1  0
 26  1  1  0
 27 14  1  0
M  END
$$$$
