-43.66109162
     RDKit          3D

 27 28  0  0  1  0  0  0  0  0999 V2000
   -3.9743   -0.3809   -0.3545 C   0  0  0  0  0  0  0  0  0  0  0  0
   -3.0732   -1.4375   -0.1929 C   0  0  0  0  0  0  0  0  0  0  0  0
   -3.5786    0.9287   -0.1912 C   0  0  0  0  0  0  0  0  0  0  0  0
   -1.7552   -1.2126    0.1320 C   0  0  0  0  0  0  0  0  0  0  0  0
   -1.3223    0.1042    0.2975 C   0  0  0  0  0  0  0  0  0  0  0  0
   -2.2490    1.1631    0.1361 C   0  0  0  0  0  0  0  0  0  0  0  0
   -1.5817    2.3325    0.3564 N   0  0  0  0  0  0  0  0  0  0  0  0
   -0.2748    2.0523    0.6479 C   0  0  0  0  0  0  0  0  0  0  0  0
   -0.0663    0.7033    0.6292 C   0  0  0  0  0  0  0  0  0  0  0  0
    1.2260   -0.0062    0.8464 C   0  0  1  0  0  0  0  0  0  0  0  0
    2.0180   -0.1311   -0.4925 C   0  0  2  0  0  0  0  0  0  0  0  0
    1.3368   -0.8640   -1.5343 N   0  0  0  0  0  0  0  0  0  0  0  0
    3.3120   -0.8371   -0.1513 C   0  0  0  0  0  0  0  0  0  0  0  0
    4.2701    0.0171    0.2248 O   0  0  0  0  0  0  0  0  0  0  0  0
    3.4681   -2.0285   -0.1542 O   0  0  0  0  0  0  0  0  0  0  0  0
    1.8410    0.5428    1.5616 H   0  0  0  0  0  0  0  0  0  0  0  0
    1.0420   -1.0099    1.2361 H   0  0  0  0  0  0  0  0  0  0  0  0
    2.2434    0.8774   -0.8565 H   0  0  0  0  0  0  0  0  0  0  0  0
    0.4222    2.8408    0.8585 H   0  0  0  0  0  0  0  0  0  0  0  0
   -1.9856    3.2524    0.3157 H   0  0  0  0  0  0  0  0  0  0  0  0
   -1.0705   -2.0385    0.2585 H   0  0  0  0  0  0  0  0  0  0  0  0
   -4.2747    1.7459   -0.3119 H   0  0  0  0  0  0  0  0  0  0  0  0
   -3.4258   -2.4495   -0.3265 H   0  0  0  0  0  0  0  0  0  0  0  0
    0.3612   -0.5906   -1.5804 H   0  0  0  0  0  0  0  0  0  0  0  0
    1.3846   -1.8588   -1.3368 H   0  0  0  0  0  0  0  0  0  0  0  0
   -5.0004   -0.5997   -0.6100 H   0  0  0  0  0  0  0  0  0  0  0  0
    5.0756   -0.4662    0.4704 H   0  0  0  0  0  0  0  0  0  0  0  0
  1  2  2  0
  1  3  1  0
  2  4  1  0
  3  6  2  0
  4 21  1  0
  4  5  2  0
  5  9  1  0
  6  5  1  0
  6  7  1  0
  7  8  1  0
  8 19  1  0
  9  8  2  0
  9 10  1  0
 10 17  1  1
 10 16  1  0
 11 18  1  6
 11 13  1  0
 11 10  1  0
 12 25  1  0
 12 11  1  0
 13 14  1  0
 14 27  1  0
 15 13  2  0
 20  7  1  0
 22  3  1  0
 23  2  1  0
 24 12  1  0
 26  1  1  0
M  END
$$$$
