 energy: -25.104081080554 gnorm: 0.000046682839 xtb: 6.5.1 (9af7eec)
     RDKit          3D

 14 13  0  0  0  0  0  0  0  0999 V2000
    0.0013    1.1576    0.2300 N   0  0  0  0  0  0  0  0  0  0  0  0
    0.1267   -0.2836    0.3559 C   0  0  2  0  0  0  0  0  0  0  0  0
    1.1666   -0.8763   -0.5814 C   0  0  0  0  0  0  0  0  0  0  0  0
    1.6567   -0.2835   -1.5059 O   0  0  0  0  0  0  0  0  0  0  0  0
    1.4653   -2.1413   -0.2809 O   0  0  0  0  0  0  0  0  0  0  0  0
   -1.2535   -0.9024    0.0379 C   0  0  1  0  0  0  0  0  0  0  0  0
   -2.2313   -0.3820    0.8873 O   0  0  0  0  0  0  0  0  0  0  0  0
    0.3860   -0.5363    1.3887 H   0  0  0  0  0  0  0  0  0  0  0  0
   -1.4998   -0.6930   -1.0150 H   0  0  0  0  0  0  0  0  0  0  0  0
   -1.2303   -1.9828    0.1916 H   0  0  0  0  0  0  0  0  0  0  0  0
   -0.0493    1.4021   -0.7559 H   0  0  0  0  0  0  0  0  0  0  0  0
    0.8186    1.6236    0.6081 H   0  0  0  0  0  0  0  0  0  0  0  0
   -2.0916    0.5753    0.9200 H   0  0  0  0  0  0  0  0  0  0  0  0
    2.1108   -2.5013   -0.9111 H   0  0  0  0  0  0  0  0  0  0  0  0
  1  2  1  0
  1 12  1  0
  1 11  1  0
  2  8  1  1
  2  3  1  0
  3  5  1  0
  3  4  2  0
  5 14  1  0
  6  9  1  6
  6  2  1  0
  7 13  1  0
  7  6  1  0
 10  6  1  0
M  END
$$$$
