relax
     RDKit          3D

 16 15  0  0  1  0  0  0  0  0999 V2000
   -0.0513    0.0601   -0.1195 N   0  0  0  0  0  0  0  0  0  0  0  0
    1.3816    0.0590    0.0549 C   0  0  2  0  0  0  0  0  0  0  0  0
    1.9051    0.0865    1.4885 C   0  0  0  0  0  0  0  0  0  0  0  0
    3.0141    0.4250    1.7984 O   0  0  0  0  0  0  0  0  0  0  0  0
    1.0123   -0.3748    2.3735 O   0  0  0  0  0  0  0  0  0  0  0  0
    2.0338    1.1778   -0.7411 C   0  0  2  0  0  0  0  0  0  0  0  0
    1.6337    2.5363   -0.2468 C   0  0  0  0  0  0  0  0  0  0  0  0
    0.8891    2.7517    0.6724 O   0  0  0  0  0  0  0  0  0  0  0  0
    2.2078    3.5153   -0.9562 O   0  0  0  0  0  0  0  0  0  0  0  0
    1.7674   -0.8830   -0.3514 H   0  0  0  0  0  0  0  0  0  0  0  0
    1.7484    1.0955   -1.7906 H   0  0  0  0  0  0  0  0  0  0  0  0
    3.1208    1.1117   -0.6878 H   0  0  0  0  0  0  0  0  0  0  0  0
   -0.4452    0.8727    0.3366 H   0  0  0  0  0  0  0  0  0  0  0  0
   -0.4635   -0.7549    0.3104 H   0  0  0  0  0  0  0  0  0  0  0  0
    1.4409   -0.3475    3.2372 H   0  0  0  0  0  0  0  0  0  0  0  0
    1.9082    4.3507   -0.5779 H   0  0  0  0  0  0  0  0  0  0  0  0
  1  2  1  0
  1 14  1  0
  1 13  1  0
  2 10  1  6
  2  3  1  0
  3  4  2  0
  3  5  1  0
  5 15  1  0
  6 12  1  6
  6  7  1  0
  6  2  1  0
  7  8  2  0
  9 16  1  0
  9  7  1  0
 11  6  1  0
M  END
$$$$
