relax
     RDKit          3D

 16 15  0  0  1  0  0  0  0  0999 V2000
    0.0097   -0.0122   -0.3151 N   0  0  0  0  0  0  0  0  0  0  0  0
    1.4161    0.0078    0.0023 C   0  0  2  0  0  0  0  0  0  0  0  0
    1.7044   -0.1915    1.4871 C   0  0  0  0  0  0  0  0  0  0  0  0
    0.9335   -0.6661    2.2699 O   0  0  0  0  0  0  0  0  0  0  0  0
    2.9597    0.1572    1.8189 O   0  0  0  0  0  0  0  0  0  0  0  0
    2.0900    1.2444   -0.5728 C   0  0  2  0  0  0  0  0  0  0  0  0
    1.6303    2.5139    0.0788 C   0  0  0  0  0  0  0  0  0  0  0  0
    0.8518    2.5846    0.9914 O   0  0  0  0  0  0  0  0  0  0  0  0
    2.1976    3.5937   -0.4749 O   0  0  0  0  0  0  0  0  0  0  0  0
    1.8867   -0.8548   -0.4840 H   0  0  0  0  0  0  0  0  0  0  0  0
    1.8696    1.3083   -1.6394 H   0  0  0  0  0  0  0  0  0  0  0  0
    3.1745    1.1916   -0.4712 H   0  0  0  0  0  0  0  0  0  0  0  0
   -0.4523    0.7234    0.2056 H   0  0  0  0  0  0  0  0  0  0  0  0
   -0.3989   -0.8795    0.0052 H   0  0  0  0  0  0  0  0  0  0  0  0
    3.0641   -0.0366    2.7580 H   0  0  0  0  0  0  0  0  0  0  0  0
    1.8566    4.3638   -0.0047 H   0  0  0  0  0  0  0  0  0  0  0  0
  1  2  1  0
  1 14  1  0
  1 13  1  0
  2 10  1  6
  2  3  1  0
  3  5  1  0
  3  4  2  0
  5 15  1  0
  6 12  1  6
  6  2  1  0
  6  7  1  0
  7  8  2  0
  9 16  1  0
  9  7  1  0
 11  6  1  0
M  END
$$$$
