-45.88780120
     RDKit          3D

 33 32  0  0  1  0  0  0  0  0999 V2000
   -0.1322   -0.6945   -0.0051 N   0  0  0  0  0  0  0  0  0  0  0  0
    0.3778    0.5018   -0.6221 C   0  0  2  0  0  0  0  0  0  0  0  0
    1.8200    0.8269   -0.1857 C   0  0  0  0  0  0  0  0  0  0  0  0
    2.5210    1.5890   -0.8184 O   0  0  0  0  0  0  0  0  0  0  0  0
   -0.5043    1.7001   -0.2470 C   0  0  1  0  0  0  0  0  0  0  0  0
   -1.8412    1.7549   -0.9889 C   0  0  2  0  0  0  0  0  0  0  0  0
   -0.8448   -0.5501    0.7220 H   0  0  0  0  0  0  0  0  0  0  0  0
    0.3954    0.4049   -1.7147 H   0  0  0  0  0  0  0  0  0  0  0  0
   -0.6732    1.6860    0.8307 H   0  0  0  0  0  0  0  0  0  0  0  0
   -1.6474    1.7203   -2.0635 H   0  0  0  0  0  0  0  0  0  0  0  0
   -2.3001    2.7232   -0.7733 H   0  0  0  0  0  0  0  0  0  0  0  0
    2.1982    0.2285    0.9575 N   0  0  0  0  0  0  0  0  0  0  0  0
    1.5579   -0.4174    1.3957 H   0  0  0  0  0  0  0  0  0  0  0  0
    3.5056    0.4012    1.5387 C   0  0  2  0  0  0  0  0  0  0  0  0
    4.0520    1.1037    0.9111 H   0  0  0  0  0  0  0  0  0  0  0  0
    4.0435   -0.5482    1.5739 H   0  0  0  0  0  0  0  0  0  0  0  0
    3.4261    0.8043    2.5498 H   0  0  0  0  0  0  0  0  0  0  0  0
    0.0637   -1.9736   -0.3866 C   0  0  0  0  0  0  0  0  0  0  0  0
   -0.5150   -2.8818    0.1835 O   0  0  0  0  0  0  0  0  0  0  0  0
    1.0332   -2.1953   -1.5257 C   0  0  2  0  0  0  0  0  0  0  0  0
    1.2349   -3.2586   -1.6177 H   0  0  0  0  0  0  0  0  0  0  0  0
    1.9620   -1.6560   -1.3559 H   0  0  0  0  0  0  0  0  0  0  0  0
    0.5924   -1.8399   -2.4558 H   0  0  0  0  0  0  0  0  0  0  0  0
    0.0538    2.6067   -0.4908 H   0  0  0  0  0  0  0  0  0  0  0  0
   -2.8571    0.6605   -0.6474 C   0  0  2  0  0  0  0  0  0  0  0  0
   -2.4728   -0.3186   -0.9338 H   0  0  0  0  0  0  0  0  0  0  0  0
   -3.7492    0.8481   -1.2486 H   0  0  0  0  0  0  0  0  0  0  0  0
   -3.2640    0.6226    0.8319 C   0  0  2  0  0  0  0  0  0  0  0  0
   -4.3284    0.3540    0.9070 H   0  0  0  0  0  0  0  0  0  0  0  0
   -3.1460    1.6178    1.2692 H   0  0  0  0  0  0  0  0  0  0  0  0
   -2.4199   -0.3041    1.5841 N   0  0  0  0  0  0  0  0  0  0  0  0
   -2.6604   -1.2638    1.3490 H   0  0  0  0  0  0  0  0  0  0  0  0
   -2.5628   -0.1907    2.5819 H   0  0  0  0  0  0  0  0  0  0  0  0
  1  7  1  0
  2  8  1  6
  2  5  1  0
  2  3  1  0
  2  1  1  0
  3 12  1  0
  4  3  2  0
  5  9  1  1
  6 11  1  6
  6 25  1  0
  6  5  1  0
 10  6  1  0
 12 13  1  0
 12 14  1  0
 14 16  1  1
 14 17  1  0
 15 14  1  0
 18  1  1  0
 18 19  2  0
 20 22  1  1
 20 18  1  0
 21 20  1  0
 23 20  1  0
 24  5  1  0
 25 28  1  0
 25 26  1  6
 27 25  1  0
 28 29  1  6
 28 30  1  0
 28 31  1  0
 31 33  1  0
 32 31  1  0
M  END
$$$$
