-45.88335663
     RDKit          3D

 33 32  0  0  1  0  0  0  0  0999 V2000
    0.0978   -1.9343   -0.6352 N   0  0  0  0  0  0  0  0  0  0  0  0
   -0.1591   -0.5274   -0.8369 C   0  0  2  0  0  0  0  0  0  0  0  0
    0.7508    0.3666    0.0226 C   0  0  0  0  0  0  0  0  0  0  0  0
    1.0465    1.4943   -0.3246 O   0  0  0  0  0  0  0  0  0  0  0  0
   -1.6170   -0.2092   -0.4701 C   0  0  1  0  0  0  0  0  0  0  0  0
   -2.0126    1.2287   -0.8360 C   0  0  2  0  0  0  0  0  0  0  0  0
   -0.6062   -2.4700   -0.1456 H   0  0  0  0  0  0  0  0  0  0  0  0
    0.0115   -0.2571   -1.8862 H   0  0  0  0  0  0  0  0  0  0  0  0
   -2.2667   -0.9180   -0.9885 H   0  0  0  0  0  0  0  0  0  0  0  0
   -2.5499    1.2264   -1.7860 H   0  0  0  0  0  0  0  0  0  0  0  0
   -1.1130    1.8288   -0.9787 H   0  0  0  0  0  0  0  0  0  0  0  0
    1.1220   -0.1757    1.1924 N   0  0  0  0  0  0  0  0  0  0  0  0
    0.8769   -1.1348    1.3868 H   0  0  0  0  0  0  0  0  0  0  0  0
    1.9329    0.5239    2.1589 C   0  0  2  0  0  0  0  0  0  0  0  0
    2.8768    0.0010    2.3211 H   0  0  0  0  0  0  0  0  0  0  0  0
    1.4019    0.6131    3.1076 H   0  0  0  0  0  0  0  0  0  0  0  0
    2.1302    1.5195    1.7655 H   0  0  0  0  0  0  0  0  0  0  0  0
    1.1788   -2.6477   -1.0489 C   0  0  0  0  0  0  0  0  0  0  0  0
    1.2759   -3.8248   -0.7744 O   0  0  0  0  0  0  0  0  0  0  0  0
    2.2060   -1.8811   -1.8438 C   0  0  2  0  0  0  0  0  0  0  0  0
    1.7832   -1.5922   -2.8043 H   0  0  0  0  0  0  0  0  0  0  0  0
    3.0672   -2.5203   -2.0147 H   0  0  0  0  0  0  0  0  0  0  0  0
    2.5149   -0.9803   -1.3192 H   0  0  0  0  0  0  0  0  0  0  0  0
   -1.7437   -0.3689    0.6033 H   0  0  0  0  0  0  0  0  0  0  0  0
   -2.8834    1.8973    0.2292 C   0  0  2  0  0  0  0  0  0  0  0  0
   -3.7252    1.2475    0.4794 H   0  0  0  0  0  0  0  0  0  0  0  0
   -3.2913    2.8232   -0.1845 H   0  0  0  0  0  0  0  0  0  0  0  0
   -2.1182    2.2426    1.5213 C   0  0  2  0  0  0  0  0  0  0  0  0
   -1.6871    1.3366    1.9564 H   0  0  0  0  0  0  0  0  0  0  0  0
   -2.8343    2.6463    2.2450 H   0  0  0  0  0  0  0  0  0  0  0  0
   -1.0461    3.2073    1.3912 N   0  0  0  0  0  0  0  0  0  0  0  0
   -1.3904    4.0585    0.9593 H   0  0  0  0  0  0  0  0  0  0  0  0
   -0.3006    2.8465    0.8039 H   0  0  0  0  0  0  0  0  0  0  0  0
  1  7  1  0
  2  8  1  6
  2  1  1  0
  2  5  1  0
  2  3  1  0
  3 12  1  0
  4  3  2  0
  5 24  1  1
  6  5  1  0
  6 25  1  0
  9  5  1  0
  6 10  1  6
 11  6  1  0
 12 13  1  0
 12 14  1  0
 14 15  1  1
 14 16  1  0
 17 14  1  0
 18 19  2  0
 18  1  1  0
 20 23  1  1
 20 18  1  0
 21 20  1  0
 22 20  1  0
 25 26  1  1
 25 28  1  0
 27 25  1  0
 28 29  1  1
 28 30  1  0
 31 28  1  0
 32 31  1  0
 33 31  1  0
M  END
$$$$
