-45.88272368
     RDKit          3D

 33 32  0  0  1  0  0  0  0  0999 V2000
    0.3898   -2.0420    0.1053 N   0  0  0  0  0  0  0  0  0  0  0  0
   -0.1757   -0.7185   -0.0306 C   0  0  2  0  0  0  0  0  0  0  0  0
    0.8991    0.3818    0.0433 C   0  0  0  0  0  0  0  0  0  0  0  0
    0.8086    1.4135   -0.5894 O   0  0  0  0  0  0  0  0  0  0  0  0
   -1.2184   -0.5027    1.0761 C   0  0  1  0  0  0  0  0  0  0  0  0
   -1.8240    0.9015    1.0931 C   0  0  2  0  0  0  0  0  0  0  0  0
    0.1780   -2.5549    0.9506 H   0  0  0  0  0  0  0  0  0  0  0  0
   -0.6631   -0.6219   -1.0072 H   0  0  0  0  0  0  0  0  0  0  0  0
   -2.0146   -1.2393    0.9418 H   0  0  0  0  0  0  0  0  0  0  0  0
   -1.0313    1.6275    1.2825 H   0  0  0  0  0  0  0  0  0  0  0  0
   -2.5334    0.9558    1.9233 H   0  0  0  0  0  0  0  0  0  0  0  0
    1.9071    0.1072    0.8906 N   0  0  0  0  0  0  0  0  0  0  0  0
    1.9464   -0.8027    1.3238 H   0  0  0  0  0  0  0  0  0  0  0  0
    3.0284    0.9932    1.0856 C   0  0  2  0  0  0  0  0  0  0  0  0
    3.9548    0.5282    0.7434 H   0  0  0  0  0  0  0  0  0  0  0  0
    3.1279    1.2558    2.1399 H   0  0  0  0  0  0  0  0  0  0  0  0
    2.8401    1.8941    0.5037 H   0  0  0  0  0  0  0  0  0  0  0  0
    1.1684   -2.7081   -0.7882 C   0  0  0  0  0  0  0  0  0  0  0  0
    1.6058   -3.8062   -0.5169 O   0  0  0  0  0  0  0  0  0  0  0  0
    1.4323   -1.9957   -2.0908 C   0  0  2  0  0  0  0  0  0  0  0  0
    1.8188   -0.9942   -1.9193 H   0  0  0  0  0  0  0  0  0  0  0  0
    0.5058   -1.9143   -2.6564 H   0  0  0  0  0  0  0  0  0  0  0  0
    2.1494   -2.5720   -2.6680 H   0  0  0  0  0  0  0  0  0  0  0  0
   -0.7427   -0.6903    2.0435 H   0  0  0  0  0  0  0  0  0  0  0  0
   -2.5429    1.2666   -0.2041 C   0  0  2  0  0  0  0  0  0  0  0  0
   -3.2720    0.4912   -0.4498 H   0  0  0  0  0  0  0  0  0  0  0  0
   -1.8150    1.3302   -1.0149 H   0  0  0  0  0  0  0  0  0  0  0  0
   -3.2684    2.6187   -0.1041 C   0  0  2  0  0  0  0  0  0  0  0  0
   -3.9607    2.6051    0.7430 H   0  0  0  0  0  0  0  0  0  0  0  0
   -3.8547    2.7713   -1.0153 H   0  0  0  0  0  0  0  0  0  0  0  0
   -2.4073    3.7752    0.0486 N   0  0  0  0  0  0  0  0  0  0  0  0
   -1.7197    3.7928   -0.6982 H   0  0  0  0  0  0  0  0  0  0  0  0
   -1.8974    3.7232    0.9238 H   0  0  0  0  0  0  0  0  0  0  0  0
  1  7  1  0
  2  8  1  6
  2  3  1  0
  2  1  1  0
  2  5  1  0
  3 12  1  0
  4  3  2  0
  5  6  1  0
  5 24  1  1
  6 10  1  1
  6 11  1  0
  9  5  1  0
 12 14  1  0
 12 13  1  0
 14 16  1  1
 15 14  1  0
 17 14  1  0
 18 19  2  0
 18  1  1  0
 20 21  1  1
 20 18  1  0
 22 20  1  0
 23 20  1  0
 25 28  1  0
 25  6  1  0
 25 26  1  6
 27 25  1  0
 28 31  1  0
 28 29  1  1
 30 28  1  0
 31 33  1  0
 32 31  1  0
M  END
$$$$
