-45.88249984
     RDKit          3D

 33 32  0  0  1  0  0  0  0  0999 V2000
    0.0547   -1.0458   -0.1702 N   0  0  0  0  0  0  0  0  0  0  0  0
    0.4054    0.2522   -0.6949 C   0  0  2  0  0  0  0  0  0  0  0  0
    1.7830    0.7433   -0.2124 C   0  0  0  0  0  0  0  0  0  0  0  0
    2.4153    1.5723   -0.8320 O   0  0  0  0  0  0  0  0  0  0  0  0
   -0.6430    1.2809   -0.2570 C   0  0  1  0  0  0  0  0  0  0  0  0
   -2.0056    0.9942   -0.8842 C   0  0  2  0  0  0  0  0  0  0  0  0
   -0.6780   -1.0718    0.5284 H   0  0  0  0  0  0  0  0  0  0  0  0
    0.4413    0.2257   -1.7907 H   0  0  0  0  0  0  0  0  0  0  0  0
   -0.7198    1.2452    0.8303 H   0  0  0  0  0  0  0  0  0  0  0  0
   -2.2428   -0.0627   -0.7622 H   0  0  0  0  0  0  0  0  0  0  0  0
   -1.9606    1.2092   -1.9537 H   0  0  0  0  0  0  0  0  0  0  0  0
    2.1815    0.2135    0.9587 N   0  0  0  0  0  0  0  0  0  0  0  0
    1.6180   -0.5075    1.3835 H   0  0  0  0  0  0  0  0  0  0  0  0
    3.4412    0.5431    1.5777 C   0  0  2  0  0  0  0  0  0  0  0  0
    3.2822    0.9364    2.5831 H   0  0  0  0  0  0  0  0  0  0  0  0
    3.9186    1.3041    0.9623 H   0  0  0  0  0  0  0  0  0  0  0  0
    4.0872   -0.3351    1.6352 H   0  0  0  0  0  0  0  0  0  0  0  0
    0.5515   -2.2514   -0.5433 C   0  0  0  0  0  0  0  0  0  0  0  0
    0.1758   -3.2695    0.0007 O   0  0  0  0  0  0  0  0  0  0  0  0
    1.5826   -2.2247   -1.6464 C   0  0  2  0  0  0  0  0  0  0  0  0
    1.1112   -1.9208   -2.5792 H   0  0  0  0  0  0  0  0  0  0  0  0
    1.9943   -3.2224   -1.7679 H   0  0  0  0  0  0  0  0  0  0  0  0
    2.3806   -1.5222   -1.4193 H   0  0  0  0  0  0  0  0  0  0  0  0
   -0.2986    2.2759   -0.5427 H   0  0  0  0  0  0  0  0  0  0  0  0
   -3.1366    1.8118   -0.2612 C   0  0  2  0  0  0  0  0  0  0  0  0
   -4.0547    1.6003   -0.8146 H   0  0  0  0  0  0  0  0  0  0  0  0
   -2.9273    2.8786   -0.3570 H   0  0  0  0  0  0  0  0  0  0  0  0
   -3.3682    1.4889    1.2182 C   0  0  2  0  0  0  0  0  0  0  0  0
   -4.2981    1.9876    1.5405 H   0  0  0  0  0  0  0  0  0  0  0  0
   -2.5563    1.8998    1.8246 H   0  0  0  0  0  0  0  0  0  0  0  0
   -3.3857    0.0486    1.4333 N   0  0  0  0  0  0  0  0  0  0  0  0
   -4.1452   -0.3704    0.9052 H   0  0  0  0  0  0  0  0  0  0  0  0
   -3.5477   -0.1577    2.4131 H   0  0  0  0  0  0  0  0  0  0  0  0
  1  7  1  0
  2  8  1  6
  2  5  1  0
  2  3  1  0
  2  1  1  0
  3 12  1  0
  4  3  2  0
  5  9  1  1
  6 10  1  6
  6 25  1  0
  6  5  1  0
 11  6  1  0
 12 13  1  0
 12 14  1  0
 14 17  1  1
 14 15  1  0
 16 14  1  0
 18  1  1  0
 18 19  2  0
 20 23  1  1
 20 18  1  0
 21 20  1  0
 22 20  1  0
 24  5  1  0
 25 28  1  0
 25 26  1  6
 27 25  1  0
 28 31  1  0
 28 29  1  1
 28 30  1  0
 31 33  1  0
 32 31  1  0
M  END
$$$$
