-45.88214127
     RDKit          3D

 33 32  0  0  1  0  0  0  0  0999 V2000
    0.5464   -1.9577    0.3473 N   0  0  0  0  0  0  0  0  0  0  0  0
   -0.0426   -0.6524    0.1450 C   0  0  2  0  0  0  0  0  0  0  0  0
    1.0272    0.4378   -0.0508 C   0  0  0  0  0  0  0  0  0  0  0  0
    0.8723    1.3619   -0.8212 O   0  0  0  0  0  0  0  0  0  0  0  0
   -0.9266   -0.3110    1.3526 C   0  0  1  0  0  0  0  0  0  0  0  0
   -1.5333    1.0925    1.3056 C   0  0  2  0  0  0  0  0  0  0  0  0
    0.4507   -2.3750    1.2633 H   0  0  0  0  0  0  0  0  0  0  0  0
   -0.6575   -0.6589   -0.7620 H   0  0  0  0  0  0  0  0  0  0  0  0
   -1.7294   -1.0510    1.4050 H   0  0  0  0  0  0  0  0  0  0  0  0
   -0.7367    1.8372    1.3415 H   0  0  0  0  0  0  0  0  0  0  0  0
   -2.1501    1.2229    2.1983 H   0  0  0  0  0  0  0  0  0  0  0  0
    2.1152    0.2797    0.7247 N   0  0  0  0  0  0  0  0  0  0  0  0
    2.2002   -0.5550    1.2839 H   0  0  0  0  0  0  0  0  0  0  0  0
    3.2466    1.1728    0.6756 C   0  0  2  0  0  0  0  0  0  0  0  0
    4.1357    0.6541    0.3122 H   0  0  0  0  0  0  0  0  0  0  0  0
    3.4511    1.5838    1.6654 H   0  0  0  0  0  0  0  0  0  0  0  0
    2.9956    1.9822   -0.0081 H   0  0  0  0  0  0  0  0  0  0  0  0
    1.2138   -2.7185   -0.5602 C   0  0  0  0  0  0  0  0  0  0  0  0
    1.6916   -3.7833   -0.2298 O   0  0  0  0  0  0  0  0  0  0  0  0
    1.3047   -2.1522   -1.9547 C   0  0  2  0  0  0  0  0  0  0  0  0
    0.3130   -2.1235   -2.4025 H   0  0  0  0  0  0  0  0  0  0  0  0
    1.9451   -2.7929   -2.5537 H   0  0  0  0  0  0  0  0  0  0  0  0
    1.7045   -1.1415   -1.9422 H   0  0  0  0  0  0  0  0  0  0  0  0
   -0.3251   -0.4004    2.2620 H   0  0  0  0  0  0  0  0  0  0  0  0
   -2.3869    1.3459    0.0662 C   0  0  2  0  0  0  0  0  0  0  0  0
   -3.0870    0.5171   -0.0776 H   0  0  0  0  0  0  0  0  0  0  0  0
   -1.7385    1.4094   -0.8100 H   0  0  0  0  0  0  0  0  0  0  0  0
   -3.1772    2.6575    0.1870 C   0  0  2  0  0  0  0  0  0  0  0  0
   -2.4832    3.4801    0.3778 H   0  0  0  0  0  0  0  0  0  0  0  0
   -3.8681    2.5939    1.0333 H   0  0  0  0  0  0  0  0  0  0  0  0
   -3.9555    3.0073   -0.9862 N   0  0  0  0  0  0  0  0  0  0  0  0
   -4.6105    2.2638   -1.2071 H   0  0  0  0  0  0  0  0  0  0  0  0
   -3.3424    3.1228   -1.7868 H   0  0  0  0  0  0  0  0  0  0  0  0
  1  7  1  0
  2  8  1  6
  2  1  1  0
  2  5  1  0
  3  2  1  0
  3 12  1  0
  4  3  2  0
  5  9  1  1
  5 24  1  0
  6 10  1  1
  6  5  1  0
  6 11  1  0
 12 13  1  0
 14 12  1  0
 14 16  1  1
 15 14  1  0
 17 14  1  0
 18 19  2  0
 18  1  1  0
 20 23  1  1
 20 18  1  0
 21 20  1  0
 22 20  1  0
 25 28  1  0
 25  6  1  0
 25 26  1  6
 27 25  1  0
 28 29  1  1
 28 30  1  0
 31 28  1  0
 32 31  1  0
 33 31  1  0
M  END
$$$$
