-45.88208781
     RDKit          3D

 33 32  0  0  1  0  0  0  0  0999 V2000
   -0.0134   -1.7512   -0.5439 N   0  0  0  0  0  0  0  0  0  0  0  0
   -0.1152   -0.3471   -0.8718 C   0  0  2  0  0  0  0  0  0  0  0  0
    0.8372    0.5311   -0.0455 C   0  0  0  0  0  0  0  0  0  0  0  0
    1.1091    1.6672   -0.3801 O   0  0  0  0  0  0  0  0  0  0  0  0
   -1.5724    0.1230   -0.7334 C   0  0  1  0  0  0  0  0  0  0  0  0
   -2.1165    0.1758    0.6976 C   0  0  2  0  0  0  0  0  0  0  0  0
   -0.7831   -2.1557   -0.0276 H   0  0  0  0  0  0  0  0  0  0  0  0
    0.1735   -0.1958   -1.9196 H   0  0  0  0  0  0  0  0  0  0  0  0
   -1.6590    1.1220   -1.1622 H   0  0  0  0  0  0  0  0  0  0  0  0
   -1.7674   -0.6863    1.2740 H   0  0  0  0  0  0  0  0  0  0  0  0
   -3.2055    0.1082    0.6448 H   0  0  0  0  0  0  0  0  0  0  0  0
    1.3370   -0.0569    1.0577 N   0  0  0  0  0  0  0  0  0  0  0  0
    1.0829   -1.0115    1.2611 H   0  0  0  0  0  0  0  0  0  0  0  0
    2.2562    0.6032    1.9510 C   0  0  2  0  0  0  0  0  0  0  0  0
    3.1918    0.0460    2.0210 H   0  0  0  0  0  0  0  0  0  0  0  0
    1.8227    0.6998    2.9485 H   0  0  0  0  0  0  0  0  0  0  0  0
    2.4552    1.5943    1.5454 H   0  0  0  0  0  0  0  0  0  0  0  0
    0.9613   -2.6262   -0.8993 C   0  0  0  0  0  0  0  0  0  0  0  0
    0.9114   -3.7825   -0.5334 O   0  0  0  0  0  0  0  0  0  0  0  0
    2.0781   -2.0649   -1.7459 C   0  0  2  0  0  0  0  0  0  0  0  0
    2.5020   -1.1713   -1.2948 H   0  0  0  0  0  0  0  0  0  0  0  0
    1.6945   -1.8063   -2.7312 H   0  0  0  0  0  0  0  0  0  0  0  0
    2.8488   -2.8223   -1.8559 H   0  0  0  0  0  0  0  0  0  0  0  0
   -2.1843   -0.5629   -1.3241 H   0  0  0  0  0  0  0  0  0  0  0  0
   -1.7620    1.4496    1.4685 C   0  0  2  0  0  0  0  0  0  0  0  0
   -0.6812    1.5659    1.5329 H   0  0  0  0  0  0  0  0  0  0  0  0
   -2.1441    1.3472    2.4876 H   0  0  0  0  0  0  0  0  0  0  0  0
   -2.3487    2.7310    0.8743 C   0  0  2  0  0  0  0  0  0  0  0  0
   -2.2271    3.5336    1.6233 H   0  0  0  0  0  0  0  0  0  0  0  0
   -3.4230    2.6006    0.7025 H   0  0  0  0  0  0  0  0  0  0  0  0
   -1.7391    3.0644   -0.4046 N   0  0  0  0  0  0  0  0  0  0  0  0
   -0.7257    3.0688   -0.3241 H   0  0  0  0  0  0  0  0  0  0  0  0
   -2.0345    3.9863   -0.7060 H   0  0  0  0  0  0  0  0  0  0  0  0
  1  7  1  0
  2  8  1  6
  2  5  1  0
  2  1  1  0
  2  3  1  0
  3 12  1  0
  4  3  2  0
  5  6  1  0
  6 10  1  1
  6 25  1  0
  5  9  1  6
 11  6  1  0
 12 13  1  0
 12 14  1  0
 14 15  1  1
 14 16  1  0
 17 14  1  0
 18  1  1  0
 18 19  2  0
 20 21  1  1
 20 18  1  0
 22 20  1  0
 23 20  1  0
 24  5  1  0
 25 26  1  1
 25 27  1  0
 28 25  1  0
 28 29  1  1
 30 28  1  0
 31 32  1  0
 31 28  1  0
 33 31  1  0
M  END
$$$$
