-45.88206129
     RDKit          3D

 33 32  0  0  1  0  0  0  0  0999 V2000
    0.5162   -1.9485   -0.0381 N   0  0  0  0  0  0  0  0  0  0  0  0
    0.0933   -0.5943   -0.3133 C   0  0  2  0  0  0  0  0  0  0  0  0
    1.2210    0.4296   -0.0835 C   0  0  0  0  0  0  0  0  0  0  0  0
    1.2792    1.4693   -0.7053 O   0  0  0  0  0  0  0  0  0  0  0  0
   -1.0993   -0.2375    0.5843 C   0  0  1  0  0  0  0  0  0  0  0  0
   -1.7371    1.0965    0.2031 C   0  0  2  0  0  0  0  0  0  0  0  0
    0.1375   -2.3947    0.7864 H   0  0  0  0  0  0  0  0  0  0  0  0
   -0.2132   -0.5012   -1.3625 H   0  0  0  0  0  0  0  0  0  0  0  0
   -1.8457   -1.0322    0.4976 H   0  0  0  0  0  0  0  0  0  0  0  0
   -2.0834    1.0358   -0.8312 H   0  0  0  0  0  0  0  0  0  0  0  0
   -0.9878    1.8879    0.2531 H   0  0  0  0  0  0  0  0  0  0  0  0
    2.0882    0.0849    0.8859 N   0  0  0  0  0  0  0  0  0  0  0  0
    2.0114   -0.8271    1.3098 H   0  0  0  0  0  0  0  0  0  0  0  0
    3.2224    0.9003    1.2446 C   0  0  2  0  0  0  0  0  0  0  0  0
    3.1667    1.8154    0.6573 H   0  0  0  0  0  0  0  0  0  0  0  0
    4.1579    0.3833    1.0229 H   0  0  0  0  0  0  0  0  0  0  0  0
    3.1933    1.1479    2.3068 H   0  0  0  0  0  0  0  0  0  0  0  0
    1.3718   -2.7155   -0.7648 C   0  0  0  0  0  0  0  0  0  0  0  0
    1.6705   -3.8271   -0.3827 O   0  0  0  0  0  0  0  0  0  0  0  0
    1.8961   -2.0926   -2.0342 C   0  0  2  0  0  0  0  0  0  0  0  0
    2.3265   -1.1131   -1.8416 H   0  0  0  0  0  0  0  0  0  0  0  0
    1.0819   -1.9762   -2.7471 H   0  0  0  0  0  0  0  0  0  0  0  0
    2.6494   -2.7475   -2.4622 H   0  0  0  0  0  0  0  0  0  0  0  0
   -0.7659   -0.1987    1.6252 H   0  0  0  0  0  0  0  0  0  0  0  0
   -2.9066    1.4424    1.1226 C   0  0  2  0  0  0  0  0  0  0  0  0
   -2.5663    1.4357    2.1602 H   0  0  0  0  0  0  0  0  0  0  0  0
   -3.6875    0.6827    1.0235 H   0  0  0  0  0  0  0  0  0  0  0  0
   -3.5066    2.8258    0.8191 C   0  0  2  0  0  0  0  0  0  0  0  0
   -2.7266    3.5859    0.9103 H   0  0  0  0  0  0  0  0  0  0  0  0
   -4.2805    3.0440    1.5614 H   0  0  0  0  0  0  0  0  0  0  0  0
   -4.1115    2.9778   -0.4889 N   0  0  0  0  0  0  0  0  0  0  0  0
   -4.8145    2.2614   -0.6381 H   0  0  0  0  0  0  0  0  0  0  0  0
   -3.4121    2.8864   -1.2169 H   0  0  0  0  0  0  0  0  0  0  0  0
  1  7  1  0
  2  8  1  6
  2  3  1  0
  2  1  1  0
  2  5  1  0
  3 12  1  0
  4  3  2  0
  5 24  1  1
  6 11  1  6
  6  5  1  0
  6 25  1  0
  9  5  1  0
 10  6  1  0
 12 14  1  0
 12 13  1  0
 14 17  1  1
 15 14  1  0
 16 14  1  0
 18 19  2  0
 18  1  1  0
 20 21  1  1
 20 18  1  0
 22 20  1  0
 23 20  1  0
 25 26  1  1
 27 25  1  0
 28 29  1  6
 28 25  1  0
 28 30  1  0
 31 28  1  0
 32 31  1  0
 33 31  1  0
M  END
$$$$
