-45.88189451
     RDKit          3D

 33 32  0  0  1  0  0  0  0  0999 V2000
    0.4291   -1.7373   -0.1031 N   0  0  0  0  0  0  0  0  0  0  0  0
    0.2094   -0.3645   -0.4972 C   0  0  2  0  0  0  0  0  0  0  0  0
    1.4374    0.5258   -0.2308 C   0  0  0  0  0  0  0  0  0  0  0  0
    1.6537    1.5289   -0.8782 O   0  0  0  0  0  0  0  0  0  0  0  0
   -0.9953    0.2053    0.2665 C   0  0  1  0  0  0  0  0  0  0  0  0
   -1.4660    1.5356   -0.3201 C   0  0  2  0  0  0  0  0  0  0  0  0
   -0.0585   -2.0679    0.7187 H   0  0  0  0  0  0  0  0  0  0  0  0
    0.0000   -0.3102   -1.5723 H   0  0  0  0  0  0  0  0  0  0  0  0
   -1.8056   -0.5251    0.2170 H   0  0  0  0  0  0  0  0  0  0  0  0
   -1.8778    1.3618   -1.3164 H   0  0  0  0  0  0  0  0  0  0  0  0
   -0.6058    2.1976   -0.4306 H   0  0  0  0  0  0  0  0  0  0  0  0
    2.2027    0.1195    0.7987 N   0  0  0  0  0  0  0  0  0  0  0  0
    1.9942   -0.7596    1.2471 H   0  0  0  0  0  0  0  0  0  0  0  0
    3.4039    0.8106    1.1984 C   0  0  2  0  0  0  0  0  0  0  0  0
    3.4894    1.7030    0.5803 H   0  0  0  0  0  0  0  0  0  0  0  0
    4.2824    0.1801    1.0488 H   0  0  0  0  0  0  0  0  0  0  0  0
    3.3459    1.1001    2.2487 H   0  0  0  0  0  0  0  0  0  0  0  0
    1.2196   -2.6599   -0.7127 C   0  0  0  0  0  0  0  0  0  0  0  0
    1.3436   -3.7688   -0.2373 O   0  0  0  0  0  0  0  0  0  0  0  0
    1.9034   -2.2060   -1.9781 C   0  0  2  0  0  0  0  0  0  0  0  0
    2.4464   -1.2777   -1.8187 H   0  0  0  0  0  0  0  0  0  0  0  0
    1.1598   -2.0406   -2.7555 H   0  0  0  0  0  0  0  0  0  0  0  0
    2.5894   -2.9820   -2.3047 H   0  0  0  0  0  0  0  0  0  0  0  0
   -0.7215    0.3430    1.3163 H   0  0  0  0  0  0  0  0  0  0  0  0
   -2.5173    2.2283    0.5447 C   0  0  2  0  0  0  0  0  0  0  0  0
   -2.7181    3.2157    0.1193 H   0  0  0  0  0  0  0  0  0  0  0  0
   -2.1212    2.3784    1.5532 H   0  0  0  0  0  0  0  0  0  0  0  0
   -3.8440    1.4583    0.6306 C   0  0  2  0  0  0  0  0  0  0  0  0
   -3.6956    0.5106    1.1541 H   0  0  0  0  0  0  0  0  0  0  0  0
   -4.2014    1.2370   -0.3791 H   0  0  0  0  0  0  0  0  0  0  0  0
   -4.9070    2.1641    1.3227 N   0  0  0  0  0  0  0  0  0  0  0  0
   -5.1081    3.0417    0.8543 H   0  0  0  0  0  0  0  0  0  0  0  0
   -4.6221    2.3836    2.2718 H   0  0  0  0  0  0  0  0  0  0  0  0
  1  7  1  0
  2  8  1  6
  2  3  1  0
  2  1  1  0
  2  5  1  0
  3 12  1  0
  4  3  2  0
  5 24  1  1
  6  5  1  0
  6 25  1  0
  9  5  1  0
  6 10  1  6
 11  6  1  0
 12 14  1  0
 12 13  1  0
 14 17  1  1
 15 14  1  0
 16 14  1  0
 18 19  2  0
 18  1  1  0
 20 21  1  1
 20 18  1  0
 22 20  1  0
 23 20  1  0
 25 28  1  0
 25 27  1  1
 26 25  1  0
 28 29  1  1
 28 31  1  0
 30 28  1  0
 31 33  1  0
 32 31  1  0
M  END
$$$$
