-43.36148700
     RDKit          3D

 24 24  0  0  1  0  0  0  0  0999 V2000
    1.2173    1.2002   -0.3127 C   0  0  2  0  0  0  0  0  0  0  0  0
   -0.1117    1.5264   -0.0164 O   0  0  0  0  0  0  0  0  0  0  0  0
   -1.0559    0.6059   -0.5304 C   0  0  1  0  0  0  0  0  0  0  0  0
   -0.8096   -0.7882    0.0672 C   0  0  2  0  0  0  0  0  0  0  0  0
    1.5934   -0.1674    0.2945 C   0  0  1  0  0  0  0  0  0  0  0  0
    0.6265   -1.2270   -0.2321 C   0  0  1  0  0  0  0  0  0  0  0  0
    0.8318   -2.4805    0.3730 O   0  0  0  0  0  0  0  0  0  0  0  0
   -1.7388   -1.6932   -0.4780 O   0  0  0  0  0  0  0  0  0  0  0  0
   -2.4704    1.1427   -0.2001 C   0  0  1  0  0  0  0  0  0  0  0  0
   -3.1615    0.4025    0.7606 O   0  0  0  0  0  0  0  0  0  0  0  0
    1.7797   -2.6585    0.3505 H   0  0  0  0  0  0  0  0  0  0  0  0
   -1.4182   -2.5801   -0.2685 H   0  0  0  0  0  0  0  0  0  0  0  0
   -3.2402   -0.5052    0.4350 H   0  0  0  0  0  0  0  0  0  0  0  0
    2.0403    2.2018    0.1823 O   0  0  0  0  0  0  0  0  0  0  0  0
    2.9049   -0.5307   -0.0585 O   0  0  0  0  0  0  0  0  0  0  0  0
    0.7634   -1.3131   -1.3233 H   0  0  0  0  0  0  0  0  0  0  0  0
   -0.9293   -0.7321    1.1607 H   0  0  0  0  0  0  0  0  0  0  0  0
   -0.9315    0.5359   -1.6221 H   0  0  0  0  0  0  0  0  0  0  0  0
   -2.3538    2.1484    0.2090 H   0  0  0  0  0  0  0  0  0  0  0  0
    1.6122    2.5678    0.9662 H   0  0  0  0  0  0  0  0  0  0  0  0
    3.4582    0.2580    0.0102 H   0  0  0  0  0  0  0  0  0  0  0  0
    1.3822    1.1560   -1.4048 H   0  0  0  0  0  0  0  0  0  0  0  0
    1.4961   -0.1033    1.3916 H   0  0  0  0  0  0  0  0  0  0  0  0
   -3.0511    1.2018   -1.1297 H   0  0  0  0  0  0  0  0  0  0  0  0
  1  2  1  0
  1 14  1  0
  1  5  1  0
  3  9  1  0
  3  2  1  0
  3  4  1  0
  4  6  1  0
  4 17  1  1
  5  6  1  0
  5 23  1  1
  6 16  1  6
  6  7  1  0
  8 12  1  0
  8  4  1  0
  9 19  1  1
  9 10  1  0
 11  7  1  0
 13 10  1  0
 14 20  1  0
 15 21  1  0
 15  5  1  0
  3 18  1  6
  1 22  1  6
 24  9  1  0
M  END
$$$$
