-43.36293069
     RDKit          3D

 24 24  0  0  1  0  0  0  0  0999 V2000
    1.0982    1.1575   -0.3627 C   0  0  2  0  0  0  0  0  0  0  0  0
   -0.2552    1.4240   -0.1186 O   0  0  0  0  0  0  0  0  0  0  0  0
   -1.1354    0.4350   -0.6297 C   0  0  1  0  0  0  0  0  0  0  0  0
   -0.8342   -0.9478   -0.0350 C   0  0  2  0  0  0  0  0  0  0  0  0
    1.5172   -0.1529    0.3302 C   0  0  1  0  0  0  0  0  0  0  0  0
    0.6513   -1.2937   -0.2039 C   0  0  1  0  0  0  0  0  0  0  0  0
    0.8951   -2.4999    0.4769 O   0  0  0  0  0  0  0  0  0  0  0  0
   -1.6377   -1.8836   -0.7023 O   0  0  0  0  0  0  0  0  0  0  0  0
   -2.5574    0.8845   -0.2670 C   0  0  1  0  0  0  0  0  0  0  0  0
   -2.6967    1.1053    1.1084 O   0  0  0  0  0  0  0  0  0  0  0  0
    1.8509   -2.6286    0.5022 H   0  0  0  0  0  0  0  0  0  0  0  0
   -1.3668   -2.7578   -0.3943 H   0  0  0  0  0  0  0  0  0  0  0  0
   -2.0062    1.7264    1.3698 H   0  0  0  0  0  0  0  0  0  0  0  0
    1.8563    2.2265    0.0920 O   0  0  0  0  0  0  0  0  0  0  0  0
    2.8684   -0.4464    0.0748 O   0  0  0  0  0  0  0  0  0  0  0  0
    0.8691   -1.4185   -1.2780 H   0  0  0  0  0  0  0  0  0  0  0  0
   -1.0688   -0.9340    1.0409 H   0  0  0  0  0  0  0  0  0  0  0  0
   -1.0370    0.3698   -1.7230 H   0  0  0  0  0  0  0  0  0  0  0  0
   -2.7945    1.7954   -0.8332 H   0  0  0  0  0  0  0  0  0  0  0  0
    1.4657    2.5433    0.9160 H   0  0  0  0  0  0  0  0  0  0  0  0
    3.3635    0.3827    0.1034 H   0  0  0  0  0  0  0  0  0  0  0  0
    1.2964    1.0695   -1.4446 H   0  0  0  0  0  0  0  0  0  0  0  0
    1.3476   -0.0478    1.4160 H   0  0  0  0  0  0  0  0  0  0  0  0
   -3.2555    0.0917   -0.5373 H   0  0  0  0  0  0  0  0  0  0  0  0
  1  2  1  0
  1 14  1  0
  1  5  1  0
  3  9  1  0
  3  2  1  0
  3  4  1  0
  4  6  1  0
  4 17  1  1
  5  6  1  0
  5 23  1  1
  6 16  1  6
  6  7  1  0
  7 11  1  0
  8 12  1  0
  8  4  1  0
  9 10  1  0
 10 13  1  0
 14 20  1  0
 15 21  1  0
 15  5  1  0
  3 18  1  6
  9 19  1  6
  1 22  1  6
 24  9  1  0
M  END
$$$$
