-43.36282664
     RDKit          3D

 24 24  0  0  1  0  0  0  0  0999 V2000
    1.2734    1.0988   -0.1352 C   0  0  2  0  0  0  0  0  0  0  0  0
    0.1067    1.2776   -0.8842 O   0  0  0  0  0  0  0  0  0  0  0  0
   -1.0179    0.4785   -0.5447 C   0  0  1  0  0  0  0  0  0  0  0  0
   -0.6990   -1.0061   -0.3163 C   0  0  2  0  0  0  0  0  0  0  0  0
    1.7275   -0.3740   -0.0936 C   0  0  1  0  0  0  0  0  0  0  0  0
    0.6000   -1.2391    0.4946 C   0  0  1  0  0  0  0  0  0  0  0  0
    0.4233   -1.0324    1.8670 O   0  0  0  0  0  0  0  0  0  0  0  0
   -0.5976   -1.6028   -1.5975 O   0  0  0  0  0  0  0  0  0  0  0  0
   -1.8182    1.0749    0.6310 C   0  0  1  0  0  0  0  0  0  0  0  0
   -3.1042    0.5236    0.7187 O   0  0  0  0  0  0  0  0  0  0  0  0
    0.6006   -0.1005    2.0610 H   0  0  0  0  0  0  0  0  0  0  0  0
   -0.4587   -2.5513   -1.4940 H   0  0  0  0  0  0  0  0  0  0  0  0
   -3.5840    0.7002   -0.0990 H   0  0  0  0  0  0  0  0  0  0  0  0
    1.1451    1.5632    1.1850 O   0  0  0  0  0  0  0  0  0  0  0  0
    2.1090   -0.8034   -1.3679 O   0  0  0  0  0  0  0  0  0  0  0  0
    0.8795   -2.2967    0.3765 H   0  0  0  0  0  0  0  0  0  0  0  0
   -1.5399   -1.4382    0.2461 H   0  0  0  0  0  0  0  0  0  0  0  0
   -1.6437    0.5304   -1.4467 H   0  0  0  0  0  0  0  0  0  0  0  0
   -1.3405    0.8516    1.5861 H   0  0  0  0  0  0  0  0  0  0  0  0
    0.8959    2.4949    1.1695 H   0  0  0  0  0  0  0  0  0  0  0  0
    1.3162   -0.8155   -1.9287 H   0  0  0  0  0  0  0  0  0  0  0  0
    2.0283    1.6834   -0.6836 H   0  0  0  0  0  0  0  0  0  0  0  0
    2.6140   -0.4421    0.5454 H   0  0  0  0  0  0  0  0  0  0  0  0
   -1.8610    2.1659    0.4961 H   0  0  0  0  0  0  0  0  0  0  0  0
  1  5  1  0
  1 14  1  0
  2  3  1  0
  2  1  1  0
  3  4  1  0
  3  9  1  0
  4 17  1  1
  4  6  1  0
  5  6  1  0
  5 23  1  1
  6 16  1  1
  6  7  1  0
  7 11  1  0
  8 12  1  0
  8  4  1  0
  9 10  1  0
  9 19  1  1
 13 10  1  0
 15  5  1  0
  3 18  1  6
 20 14  1  0
 21 15  1  0
  1 22  1  6
 24  9  1  0
M  END
$$$$
