Coordinates from ORCA-job xar
     RDKit          3D

 23 22  0  0  0  0  0  0  0  0999 V2000
   -0.9320   -0.6800    0.0690 N   0  0  0  0  0  0  0  0  0  0  0  0
    0.1240    0.2640   -0.2150 C   0  0  2  0  0  0  0  0  0  0  0  0
    1.4290   -0.4910    0.0290 C   0  0  0  0  0  0  0  0  0  0  0  0
    1.4490   -1.5800    0.5960 O   0  0  0  0  0  0  0  0  0  0  0  0
    0.0440    1.5480    0.6330 C   0  0  1  0  0  0  0  0  0  0  0  0
   -0.7940    2.5210    0.0640 O   0  0  0  0  0  0  0  0  0  0  0  0
   -0.6100   -1.5660    0.4340 H   0  0  0  0  0  0  0  0  0  0  0  0
    0.0770    0.5740   -1.2630 H   0  0  0  0  0  0  0  0  0  0  0  0
   -0.2690    1.2560    1.6430 H   0  0  0  0  0  0  0  0  0  0  0  0
    1.0360    1.9930    0.7090 H   0  0  0  0  0  0  0  0  0  0  0  0
   -1.6060    2.0480   -0.1960 H   0  0  0  0  0  0  0  0  0  0  0  0
    2.5350    0.1460   -0.4130 N   0  0  0  0  0  0  0  0  0  0  0  0
    2.4180    1.0160   -0.9020 H   0  0  0  0  0  0  0  0  0  0  0  0
    3.8650   -0.4040   -0.2500 C   0  0  1  0  0  0  0  0  0  0  0  0
    4.2770   -0.7320   -1.2030 H   0  0  0  0  0  0  0  0  0  0  0  0
    4.5300    0.3330    0.1930 H   0  0  0  0  0  0  0  0  0  0  0  0
    3.7850   -1.2600    0.4120 H   0  0  0  0  0  0  0  0  0  0  0  0
   -2.2410   -0.4440   -0.1540 C   0  0  0  0  0  0  0  0  0  0  0  0
   -2.6690    0.6380   -0.5640 O   0  0  0  0  0  0  0  0  0  0  0  0
   -3.1660   -1.6040    0.1110 C   0  0  2  0  0  0  0  0  0  0  0  0
   -3.5710   -1.9440   -0.8400 H   0  0  0  0  0  0  0  0  0  0  0  0
   -3.9960   -1.2530    0.7170 H   0  0  0  0  0  0  0  0  0  0  0  0
   -2.6740   -2.4360    0.6060 H   0  0  0  0  0  0  0  0  0  0  0  0
  1  2  1  0
  1 18  1  0
  1  7  1  0
  2  8  1  6
  2  3  1  0
  2  5  1  0
  3 12  1  0
  3  4  1  0
  5  6  1  0
  5 10  1  1
  5  9  1  0
  6 11  1  0
 12 13  1  0
 12 14  1  0
 14 15  1  6
 14 16  1  0
 14 17  1  0
 18 19  1  0
 18 20  1  0
 20 21  1  6
 20 23  1  0
 20 22  1  0
M  END
$$$$
