 energy: -50.006055860828 gnorm: 0.000025953145 xtb: 6.5.1 (9af7eec)
     RDKit          3D

 33 34  0  0  0  0  0  0  0  0999 V2000
    2.3223    0.9107   -2.8403 N   0  0  0  0  0  0  0  0  0  0  0  0
    1.2578    0.3334   -3.4785 C   0  0  0  0  0  0  0  0  0  0  0  0
    0.3963   -0.2047   -2.5660 C   0  0  1  0  0  0  0  0  0  0  0  0
    0.9599    0.0529   -1.2785 C   0  0  0  0  0  0  0  0  0  0  0  0
    0.5444   -0.2594    0.0190 C   0  0  0  0  0  0  0  0  0  0  0  0
    1.3344    0.1511    1.0737 C   0  0  0  0  0  0  0  0  0  0  0  0
    2.5285    0.8637    0.8453 C   0  0  0  0  0  0  0  0  0  0  0  0
    2.9575    1.1670   -0.4242 C   0  0  0  0  0  0  0  0  0  0  0  0
    2.1670    0.7544   -1.4910 C   0  0  0  0  0  0  0  0  0  0  0  0
    3.1057    1.3498   -3.2916 H   0  0  0  0  0  0  0  0  0  0  0  0
    1.1915    0.3419   -4.5499 H   0  0  0  0  0  0  0  0  0  0  0  0
   -0.3728   -0.8056    0.1692 H   0  0  0  0  0  0  0  0  0  0  0  0
    3.1022    1.1595    1.7089 H   0  0  0  0  0  0  0  0  0  0  0  0
    3.8794    1.7058   -0.5848 H   0  0  0  0  0  0  0  0  0  0  0  0
    1.0485   -0.0744    2.3929 O   0  0  0  0  0  0  0  0  0  0  0  0
   -0.0773   -0.8587    2.7039 C   0  0  2  0  0  0  0  0  0  0  0  0
   -0.0935   -0.9327    3.7902 H   0  0  0  0  0  0  0  0  0  0  0  0
    0.0030   -1.8622    2.2735 H   0  0  0  0  0  0  0  0  0  0  0  0
   -1.0066   -0.3939    2.3599 H   0  0  0  0  0  0  0  0  0  0  0  0
   -0.9205   -0.8614   -2.8167 C   0  0  2  0  0  0  0  0  0  0  0  0
   -2.0641    0.1718   -2.8216 C   0  0  2  0  0  0  0  0  0  0  0  0
   -2.0224    1.0461   -1.6729 N   0  0  0  0  0  0  0  0  0  0  0  0
   -2.6694    0.7717   -0.5155 C   0  0  0  0  0  0  0  0  0  0  0  0
   -2.3767    1.7772    0.5820 C   0  0  2  0  0  0  0  0  0  0  0  0
   -1.1145   -1.5912   -2.0297 H   0  0  0  0  0  0  0  0  0  0  0  0
   -0.9150   -1.3787   -3.7772 H   0  0  0  0  0  0  0  0  0  0  0  0
   -3.0258   -0.3449   -2.7982 H   0  0  0  0  0  0  0  0  0  0  0  0
   -2.0038    0.7892   -3.7221 H   0  0  0  0  0  0  0  0  0  0  0  0
   -1.2863    1.7343   -1.6588 H   0  0  0  0  0  0  0  0  0  0  0  0
   -3.4327   -0.1612   -0.3863 O   0  0  0  0  0  0  0  0  0  0  0  0
   -1.3126    1.7837    0.8119 H   0  0  0  0  0  0  0  0  0  0  0  0
   -2.9407    1.5151    1.4726 H   0  0  0  0  0  0  0  0  0  0  0  0
   -2.6681    2.7733    0.2564 H   0  0  0  0  0  0  0  0  0  0  0  0
  1  2  1  0
  1 10  1  0
  9  1  1  0
  2 11  1  0
  3  2  1  1
  3 20  1  0
  3  4  1  0
  4  5  1  0
  4  9  1  0
  5 12  1  0
  5  6  1  0
  6  7  1  0
  6 15  1  0
  7  8  1  0
  7 13  1  0
  8  9  1  0
  8 14  1  0
 15 16  1  0
 16 18  1  6
 16 19  1  0
 16 17  1  0
 20 25  1  1
 20 26  1  0
 20 21  1  0
 21 27  1  6
 21 22  1  0
 21 28  1  0
 22 29  1  0
 22 23  1  0
 23 30  1  0
 23 24  1  0
 24 32  1  1
 24 31  1  0
 24 33  1  0
M  END
$$$$
