 energy: -50.006112660257 gnorm: 0.000040121502 xtb: 6.5.1 (9af7eec)
     RDKit          3D

 33 34  0  0  0  0  0  0  0  0999 V2000
    1.6139    1.4212   -2.5662 N   0  0  0  0  0  0  0  0  0  0  0  0
    0.8034    0.5271   -3.2027 C   0  0  0  0  0  0  0  0  0  0  0  0
    0.2803   -0.3587   -2.3043 C   0  0  1  0  0  0  0  0  0  0  0  0
    0.7841    0.0199   -1.0242 C   0  0  0  0  0  0  0  0  0  0  0  0
    0.6075   -0.4904    0.2666 C   0  0  0  0  0  0  0  0  0  0  0  0
    1.2442    0.1417    1.3151 C   0  0  0  0  0  0  0  0  0  0  0  0
    2.0533    1.2725    1.0928 C   0  0  0  0  0  0  0  0  0  0  0  0
    2.2479    1.7808   -0.1685 C   0  0  0  0  0  0  0  0  0  0  0  0
    1.6105    1.1485   -1.2294 C   0  0  0  0  0  0  0  0  0  0  0  0
    2.0744    2.2013   -3.0018 H   0  0  0  0  0  0  0  0  0  0  0  0
    0.6515    0.5802   -4.2634 H   0  0  0  0  0  0  0  0  0  0  0  0
   -0.0089   -1.3630    0.4195 H   0  0  0  0  0  0  0  0  0  0  0  0
    2.5199    1.7249    1.9530 H   0  0  0  0  0  0  0  0  0  0  0  0
    2.8742    2.6456   -0.3271 H   0  0  0  0  0  0  0  0  0  0  0  0
    1.1557   -0.2421    2.6299 O   0  0  0  0  0  0  0  0  0  0  0  0
    0.4055   -1.3862    2.9400 C   0  0  2  0  0  0  0  0  0  0  0  0
    0.5014   -1.5215    4.0163 H   0  0  0  0  0  0  0  0  0  0  0  0
    0.7927   -2.2747    2.4292 H   0  0  0  0  0  0  0  0  0  0  0  0
   -0.6537   -1.2571    2.6884 H   0  0  0  0  0  0  0  0  0  0  0  0
   -0.7479   -1.4072   -2.5738 C   0  0  2  0  0  0  0  0  0  0  0  0
   -2.1488   -0.7663   -2.5503 C   0  0  2  0  0  0  0  0  0  0  0  0
   -2.3609    0.0000   -1.3452 N   0  0  0  0  0  0  0  0  0  0  0  0
   -2.1786    1.3450   -1.3120 C   0  0  0  0  0  0  0  0  0  0  0  0
   -2.1744    1.9184    0.0897 C   0  0  2  0  0  0  0  0  0  0  0  0
   -0.6897   -2.1895   -1.8138 H   0  0  0  0  0  0  0  0  0  0  0  0
   -0.5874   -1.8637   -3.5514 H   0  0  0  0  0  0  0  0  0  0  0  0
   -2.9235   -1.5348   -2.6333 H   0  0  0  0  0  0  0  0  0  0  0  0
   -2.2442   -0.0627   -3.3796 H   0  0  0  0  0  0  0  0  0  0  0  0
   -2.3075   -0.5051   -0.4747 H   0  0  0  0  0  0  0  0  0  0  0  0
   -2.0659    2.0209   -2.3115 O   0  0  0  0  0  0  0  0  0  0  0  0
   -1.2370    1.6555    0.5781 H   0  0  0  0  0  0  0  0  0  0  0  0
   -3.0028    1.5227    0.6724 H   0  0  0  0  0  0  0  0  0  0  0  0
   -2.2500    3.0002    0.0360 H   0  0  0  0  0  0  0  0  0  0  0  0
  1  2  1  0
  1 10  1  0
  9  1  1  0
  2 11  1  0
  3  2  1  1
  3 20  1  0
  3  4  1  0
  4  5  1  0
  4  9  1  0
  5 12  1  0
  5  6  1  0
  6  7  1  0
  6 15  1  0
  7  8  1  0
  7 13  1  0
  8  9  1  0
  8 14  1  0
 15 16  1  0
 16 18  1  6
 16 19  1  0
 16 17  1  0
 20 25  1  1
 20 26  1  0
 20 21  1  0
 21 27  1  6
 21 22  1  0
 21 28  1  0
 22 29  1  0
 22 23  1  0
 23 30  1  0
 23 24  1  0
 24 32  1  1
 24 31  1  0
 24 33  1  0
M  END
$$$$
