Coordinates from ORCA-job xal
     RDKit          3D

 26 25  0  0  0  0  0  0  0  0999 V2000
   -1.2290   -0.2780    0.4030 N   0  0  0  0  0  0  0  0  0  0  0  0
    0.0810   -0.0970   -0.1690 C   0  0  2  0  0  0  0  0  0  0  0  0
    1.0690   -0.7120    0.8130 C   0  0  0  0  0  0  0  0  0  0  0  0
    0.8050   -0.7270    2.0160 O   0  0  0  0  0  0  0  0  0  0  0  0
    0.3470    1.4000   -0.4020 C   0  0  2  0  0  0  0  0  0  0  0  0
    1.5610    1.4830   -1.1470 O   0  0  0  0  0  0  0  0  0  0  0  0
    0.4290    2.2030    0.8800 C   0  0  2  0  0  0  0  0  0  0  0  0
   -1.2530   -0.4670    1.3930 H   0  0  0  0  0  0  0  0  0  0  0  0
    0.1060   -0.5850   -1.1430 H   0  0  0  0  0  0  0  0  0  0  0  0
   -0.4920    1.7460   -1.0110 H   0  0  0  0  0  0  0  0  0  0  0  0
    1.7450    2.4160   -1.2930 H   0  0  0  0  0  0  0  0  0  0  0  0
    0.5420    3.2620    0.6450 H   0  0  0  0  0  0  0  0  0  0  0  0
    1.2780    1.8850    1.4810 H   0  0  0  0  0  0  0  0  0  0  0  0
   -0.4790    2.0860    1.4690 H   0  0  0  0  0  0  0  0  0  0  0  0
    2.2250   -1.2070    0.3250 N   0  0  0  0  0  0  0  0  0  0  0  0
    2.8060   -1.6240    1.0360 H   0  0  0  0  0  0  0  0  0  0  0  0
    2.5750   -1.4270   -1.0680 C   0  0  1  0  0  0  0  0  0  0  0  0
    2.3380   -0.5490   -1.6570 H   0  0  0  0  0  0  0  0  0  0  0  0
    3.6480   -1.5900   -1.1240 H   0  0  0  0  0  0  0  0  0  0  0  0
    2.0720   -2.3010   -1.4820 H   0  0  0  0  0  0  0  0  0  0  0  0
   -2.3430   -0.3220   -0.3730 C   0  0  0  0  0  0  0  0  0  0  0  0
   -2.3030   -0.1520   -1.5870 O   0  0  0  0  0  0  0  0  0  0  0  0
   -3.6320   -0.5940    0.3630 C   0  0  2  0  0  0  0  0  0  0  0  0
   -4.0530   -1.5240   -0.0110 H   0  0  0  0  0  0  0  0  0  0  0  0
   -4.3360    0.2020    0.1340 H   0  0  0  0  0  0  0  0  0  0  0  0
   -3.5040   -0.6640    1.4400 H   0  0  0  0  0  0  0  0  0  0  0  0
  1 21  1  0
  1  2  1  0
  1  8  1  0
  2  9  1  6
  2  5  1  0
  2  3  1  0
  3 15  1  0
  3  4  1  0
  5  6  1  0
  5 10  1  6
  5  7  1  0
  6 11  1  0
  7 12  1  6
  7 14  1  0
  7 13  1  0
 15 17  1  0
 15 16  1  0
 17 18  1  6
 17 20  1  0
 17 19  1  0
 21 22  1  0
 21 23  1  0
 23 24  1  6
 23 25  1  0
 23 26  1  0
M  END
$$$$
