 energy: -92.474301323396 gnorm: 0.000044922188 xtb: 6.5.1 (9af7eec)
     RDKit          3D

 74 76  0  0  0  0  0  0  0  0999 V2000
   -1.7415    0.6539    3.1899 C   0  0  1  0  0  0  0  0  0  0  0  0
   -1.6418    1.4145    1.8684 C   0  0  2  0  0  0  0  0  0  0  0  0
   -2.9400    1.2603    1.0559 C   0  0  1  0  0  0  0  0  0  0  0  0
   -3.2375   -0.1644    0.5970 C   0  0  2  0  0  0  0  0  0  0  0  0
   -4.4133   -0.2201   -0.3759 C   0  0  1  0  0  0  0  0  0  0  0  0
   -4.5418   -1.5923   -1.0725 C   0  0  2  0  0  0  0  0  0  0  0  0
   -5.6590   -1.5151   -2.1219 C   0  0  1  0  0  0  0  0  0  0  0  0
   -4.8485   -2.7050   -0.0683 C   0  0  1  0  0  0  0  0  0  0  0  0
   -3.3192   -1.9332   -1.6972 O   0  0  0  0  0  0  0  0  0  0  0  0
   -0.4094    1.0672    1.0069 C   0  0  2  0  0  0  0  0  0  0  0  0
    0.2387   -0.3116    1.1981 C   0  0  2  0  0  0  0  0  0  0  0  0
    1.6669   -0.1705    0.6419 C   0  0  2  0  0  0  0  0  0  0  0  0
    1.8427    1.3049    0.2612 C   0  0  2  0  0  0  0  0  0  0  0  0
    0.7791    2.0492    1.1132 C   0  0  1  0  0  0  0  0  0  0  0  0
    0.4707    3.4284    0.5077 C   0  0  1  0  0  0  0  0  0  0  0  0
    1.6963    3.9791   -0.2175 C   0  0  1  0  0  0  0  0  0  0  0  0
    1.9903    3.1104   -1.4478 C   0  0  2  0  0  0  0  0  0  0  0  0
    1.6201    1.6755   -1.1792 C   0  0  0  0  0  0  0  0  0  0  0  0
    1.0660    0.8628   -2.0909 C   0  0  0  0  0  0  0  0  0  0  0  0
    0.8333    1.1867   -3.4729 C   0  0  0  0  0  0  0  0  0  0  0  0
    0.1611    0.4451   -4.3726 C   0  0  0  0  0  0  0  0  0  0  0  0
   -0.5122   -0.8688   -4.0919 C   0  0  1  0  0  0  0  0  0  0  0  0
   -1.9493   -0.9258   -4.6402 C   0  0  2  0  0  0  0  0  0  0  0  0
   -1.9802   -0.5360   -6.1192 C   0  0  2  0  0  0  0  0  0  0  0  0
   -1.3528    0.8397   -6.3484 C   0  0  2  0  0  0  0  0  0  0  0  0
    0.0375    0.9158   -5.7578 C   0  0  0  0  0  0  0  0  0  0  0  0
    1.0489    1.4327   -6.4481 C   0  0  0  0  0  0  0  0  0  0  0  0
   -2.1935    1.8174   -5.7343 O   0  0  0  0  0  0  0  0  0  0  0  0
   -2.8261   -0.1299   -3.8737 O   0  0  0  0  0  0  0  0  0  0  0  0
    1.2877    2.2233    2.5437 C   0  0  1  0  0  0  0  0  0  0  0  0
   -1.8512   -0.4135    3.0247 H   0  0  0  0  0  0  0  0  0  0  0  0
   -0.8632    0.8213    3.8073 H   0  0  0  0  0  0  0  0  0  0  0  0
   -2.6123    1.0025    3.7425 H   0  0  0  0  0  0  0  0  0  0  0  0
   -1.5679    2.4809    2.1142 H   0  0  0  0  0  0  0  0  0  0  0  0
   -3.7773    1.6211    1.6598 H   0  0  0  0  0  0  0  0  0  0  0  0
   -2.8737    1.9085    0.1776 H   0  0  0  0  0  0  0  0  0  0  0  0
   -3.4546   -0.7882    1.4635 H   0  0  0  0  0  0  0  0  0  0  0  0
   -2.3678   -0.5797    0.0887 H   0  0  0  0  0  0  0  0  0  0  0  0
   -5.3463    0.0125    0.1404 H   0  0  0  0  0  0  0  0  0  0  0  0
   -4.2625    0.5340   -1.1538 H   0  0  0  0  0  0  0  0  0  0  0  0
   -6.6079   -1.2653   -1.6545 H   0  0  0  0  0  0  0  0  0  0  0  0
   -5.4188   -0.7560   -2.8639 H   0  0  0  0  0  0  0  0  0  0  0  0
   -5.7571   -2.4726   -2.6284 H   0  0  0  0  0  0  0  0  0  0  0  0
   -5.7293   -2.4576    0.5173 H   0  0  0  0  0  0  0  0  0  0  0  0
   -5.0233   -3.6368   -0.5999 H   0  0  0  0  0  0  0  0  0  0  0  0
   -4.0013   -2.8498    0.5949 H   0  0  0  0  0  0  0  0  0  0  0  0
   -3.1539   -1.2720   -2.3879 H   0  0  0  0  0  0  0  0  0  0  0  0
   -0.7298    1.1219   -0.0390 H   0  0  0  0  0  0  0  0  0  0  0  0
   -0.3205   -1.0884    0.6787 H   0  0  0  0  0  0  0  0  0  0  0  0
    0.2763   -0.5837    2.2504 H   0  0  0  0  0  0  0  0  0  0  0  0
    1.8476   -0.8286   -0.2060 H   0  0  0  0  0  0  0  0  0  0  0  0
    2.3994   -0.4361    1.4053 H   0  0  0  0  0  0  0  0  0  0  0  0
    2.8478    1.6430    0.5314 H   0  0  0  0  0  0  0  0  0  0  0  0
   -0.3496    3.3484   -0.2092 H   0  0  0  0  0  0  0  0  0  0  0  0
    0.1596    4.1210    1.2918 H   0  0  0  0  0  0  0  0  0  0  0  0
    1.5205    5.0103   -0.5297 H   0  0  0  0  0  0  0  0  0  0  0  0
    2.5487    3.9873    0.4638 H   0  0  0  0  0  0  0  0  0  0  0  0
    3.0515    3.1764   -1.7082 H   0  0  0  0  0  0  0  0  0  0  0  0
    1.4189    3.4923   -2.2935 H   0  0  0  0  0  0  0  0  0  0  0  0
    0.7760   -0.1314   -1.7884 H   0  0  0  0  0  0  0  0  0  0  0  0
    1.2436    2.1236   -3.8257 H   0  0  0  0  0  0  0  0  0  0  0  0
    0.0632   -1.6677   -4.5701 H   0  0  0  0  0  0  0  0  0  0  0  0
   -0.5536   -1.0709   -3.0228 H   0  0  0  0  0  0  0  0  0  0  0  0
   -2.3185   -1.9531   -4.5288 H   0  0  0  0  0  0  0  0  0  0  0  0
   -3.0160   -0.5111   -6.4628 H   0  0  0  0  0  0  0  0  0  0  0  0
   -1.4310   -1.2736   -6.7051 H   0  0  0  0  0  0  0  0  0  0  0  0
   -1.3069    1.0405   -7.4307 H   0  0  0  0  0  0  0  0  0  0  0  0
    2.0408    1.4929   -6.0347 H   0  0  0  0  0  0  0  0  0  0  0  0
    0.9253    1.7880   -7.4581 H   0  0  0  0  0  0  0  0  0  0  0  0
   -1.7720    2.6791   -5.8153 H   0  0  0  0  0  0  0  0  0  0  0  0
   -2.7237    0.7837   -4.1834 H   0  0  0  0  0  0  0  0  0  0  0  0
    2.1509    2.8871    2.5544 H   0  0  0  0  0  0  0  0  0  0  0  0
    0.5195    2.6644    3.1741 H   0  0  0  0  0  0  0  0  0  0  0  0
    1.5870    1.2732    2.9753 H   0  0  0  0  0  0  0  0  0  0  0  0
  1  2  1  0
  2  3  1  0
  3  4  1  0
  4  5  1  0
  5  6  1  0
  6  7  1  0
  6  8  1  0
  6  9  1  6
  2 10  1  0
 10 11  1  0
 11 12  1  0
 12 13  1  0
 14 13  1  6
 14 15  1  0
 15 16  1  0
 16 17  1  0
 17 18  1  0
 18 19  2  0
 19 20  1  0
 20 21  2  0
 21 22  1  0
 22 23  1  0
 23 24  1  0
 24 25  1  0
 25 26  1  0
 26 27  2  0
 25 28  1  0
 23 29  1  0
 14 30  1  0
 14 10  1  0
 18 13  1  0
 26 21  1  0
  1 31  1  6
  1 32  1  0
  1 33  1  0
  2 34  1  1
  3 35  1  1
  3 36  1  0
  4 37  1  1
  4 38  1  0
  5 39  1  1
  5 40  1  0
  7 41  1  1
  7 42  1  0
  7 43  1  0
  8 44  1  1
  8 45  1  0
  8 46  1  0
  9 47  1  0
 10 48  1  6
 11 49  1  6
 11 50  1  0
 12 51  1  6
 12 52  1  0
 13 53  1  1
 15 54  1  6
 15 55  1  0
 16 56  1  6
 16 57  1  0
 17 58  1  6
 17 59  1  0
 19 60  1  0
 20 61  1  0
 22 62  1  6
 22 63  1  0
 23 64  1  6
 24 65  1  6
 24 66  1  0
 25 67  1  6
 27 68  1  0
 27 69  1  0
 28 70  1  0
 29 71  1  0
 30 72  1  6
 30 73  1  0
 30 74  1  0
M  END
$$$$
