 energy: -92.465857571946 gnorm: 0.000019283272 xtb: 6.5.1 (9af7eec)
     RDKit          3D

 74 76  0  0  0  0  0  0  0  0999 V2000
   -2.7462    2.1797    0.7028 C   0  0  1  0  0  0  0  0  0  0  0  0
   -3.0128    1.5759   -0.6753 C   0  0  2  0  0  0  0  0  0  0  0  0
   -3.8919    0.3183   -0.5278 C   0  0  1  0  0  0  0  0  0  0  0  0
   -5.3723    0.6635   -0.3742 C   0  0  2  0  0  0  0  0  0  0  0  0
   -6.2609   -0.4885    0.1002 C   0  0  1  0  0  0  0  0  0  0  0  0
   -6.4865   -1.6878   -0.8492 C   0  0  2  0  0  0  0  0  0  0  0  0
   -5.3487   -2.7123   -0.7771 C   0  0  1  0  0  0  0  0  0  0  0  0
   -6.7190   -1.2459   -2.2927 C   0  0  1  0  0  0  0  0  0  0  0  0
   -7.6984   -2.3298   -0.4552 O   0  0  0  0  0  0  0  0  0  0  0  0
   -1.7478    1.2284   -1.4896 C   0  0  2  0  0  0  0  0  0  0  0  0
   -0.7809    0.2906   -0.7396 C   0  0  2  0  0  0  0  0  0  0  0  0
    0.4644    1.1119   -0.3670 C   0  0  2  0  0  0  0  0  0  0  0  0
    0.1865    2.5543   -0.8265 C   0  0  2  0  0  0  0  0  0  0  0  0
   -0.8506    2.4046   -1.9579 C   0  0  1  0  0  0  0  0  0  0  0  0
   -0.1496    1.9615   -3.2559 C   0  0  1  0  0  0  0  0  0  0  0  0
    1.0400    2.8372   -3.6305 C   0  0  1  0  0  0  0  0  0  0  0  0
    2.0664    2.8545   -2.4970 C   0  0  2  0  0  0  0  0  0  0  0  0
    1.4137    3.3187   -1.2317 C   0  0  0  0  0  0  0  0  0  0  0  0
    1.8331    4.3499   -0.4835 C   0  0  0  0  0  0  0  0  0  0  0  0
    2.9620    5.2066   -0.7337 C   0  0  0  0  0  0  0  0  0  0  0  0
    3.4063    6.1665    0.0933 C   0  0  0  0  0  0  0  0  0  0  0  0
    4.5375    7.0814   -0.2784 C   0  0  1  0  0  0  0  0  0  0  0  0
    4.1207    8.5640   -0.1810 C   0  0  2  0  0  0  0  0  0  0  0  0
    3.5493    8.8577    1.2115 C   0  0  2  0  0  0  0  0  0  0  0  0
    2.3982    7.9111    1.5637 C   0  0  2  0  0  0  0  0  0  0  0  0
    2.8225    6.4673    1.4069 C   0  0  0  0  0  0  0  0  0  0  0  0
    2.6614    5.5776    2.3779 C   0  0  0  0  0  0  0  0  0  0  0  0
    1.3061    8.1997    0.6944 O   0  0  0  0  0  0  0  0  0  0  0  0
    3.2293    8.9226   -1.2033 O   0  0  0  0  0  0  0  0  0  0  0  0
   -1.5972    3.7115   -2.2124 C   0  0  1  0  0  0  0  0  0  0  0  0
   -2.0369    1.5796    1.2658 H   0  0  0  0  0  0  0  0  0  0  0  0
   -2.3581    3.1917    0.6310 H   0  0  0  0  0  0  0  0  0  0  0  0
   -3.6719    2.2261    1.2724 H   0  0  0  0  0  0  0  0  0  0  0  0
   -3.5868    2.2989   -1.2636 H   0  0  0  0  0  0  0  0  0  0  0  0
   -3.7635   -0.3080   -1.4109 H   0  0  0  0  0  0  0  0  0  0  0  0
   -3.5644   -0.2586    0.3390 H   0  0  0  0  0  0  0  0  0  0  0  0
   -5.7511    1.0581   -1.3178 H   0  0  0  0  0  0  0  0  0  0  0  0
   -5.4720    1.4600    0.3675 H   0  0  0  0  0  0  0  0  0  0  0  0
   -5.8694   -0.8673    1.0497 H   0  0  0  0  0  0  0  0  0  0  0  0
   -7.2533   -0.0727    0.2986 H   0  0  0  0  0  0  0  0  0  0  0  0
   -4.4278   -2.3148   -1.1885 H   0  0  0  0  0  0  0  0  0  0  0  0
   -5.1669   -3.0094    0.2551 H   0  0  0  0  0  0  0  0  0  0  0  0
   -5.6297   -3.5972   -1.3447 H   0  0  0  0  0  0  0  0  0  0  0  0
   -5.8114   -0.8414   -2.7283 H   0  0  0  0  0  0  0  0  0  0  0  0
   -7.0406   -2.1049   -2.8756 H   0  0  0  0  0  0  0  0  0  0  0  0
   -7.5062   -0.4979   -2.3272 H   0  0  0  0  0  0  0  0  0  0  0  0
   -7.5903   -2.6659    0.4410 H   0  0  0  0  0  0  0  0  0  0  0  0
   -2.1195    0.7258   -2.3896 H   0  0  0  0  0  0  0  0  0  0  0  0
   -0.5024   -0.5502   -1.3757 H   0  0  0  0  0  0  0  0  0  0  0  0
   -1.2536   -0.1304    0.1452 H   0  0  0  0  0  0  0  0  0  0  0  0
    1.3466    0.7143   -0.8670 H   0  0  0  0  0  0  0  0  0  0  0  0
    0.6624    1.0848    0.7045 H   0  0  0  0  0  0  0  0  0  0  0  0
   -0.2869    3.0890   -0.0001 H   0  0  0  0  0  0  0  0  0  0  0  0
    0.2051    0.9363   -3.1397 H   0  0  0  0  0  0  0  0  0  0  0  0
   -0.8781    1.9683   -4.0707 H   0  0  0  0  0  0  0  0  0  0  0  0
    1.5042    2.4478   -4.5397 H   0  0  0  0  0  0  0  0  0  0  0  0
    0.7152    3.8577   -3.8392 H   0  0  0  0  0  0  0  0  0  0  0  0
    2.9069    3.4911   -2.7680 H   0  0  0  0  0  0  0  0  0  0  0  0
    2.4552    1.8414   -2.3578 H   0  0  0  0  0  0  0  0  0  0  0  0
    1.2713    4.5824    0.4137 H   0  0  0  0  0  0  0  0  0  0  0  0
    3.4713    5.0935   -1.6806 H   0  0  0  0  0  0  0  0  0  0  0  0
    5.3760    6.9184    0.4054 H   0  0  0  0  0  0  0  0  0  0  0  0
    4.8733    6.8763   -1.2957 H   0  0  0  0  0  0  0  0  0  0  0  0
    5.0124    9.1842   -0.3424 H   0  0  0  0  0  0  0  0  0  0  0  0
    3.1767    9.8833    1.2341 H   0  0  0  0  0  0  0  0  0  0  0  0
    4.3332    8.7493    1.9621 H   0  0  0  0  0  0  0  0  0  0  0  0
    2.0851    8.0944    2.6049 H   0  0  0  0  0  0  0  0  0  0  0  0
    2.9752    4.5546    2.2604 H   0  0  0  0  0  0  0  0  0  0  0  0
    2.2344    5.8481    3.3303 H   0  0  0  0  0  0  0  0  0  0  0  0
    0.6316    7.5223    0.8095 H   0  0  0  0  0  0  0  0  0  0  0  0
    2.3457    8.6370   -0.9254 H   0  0  0  0  0  0  0  0  0  0  0  0
   -0.8993    4.4813   -2.5321 H   0  0  0  0  0  0  0  0  0  0  0  0
   -2.3445    3.5790   -2.9923 H   0  0  0  0  0  0  0  0  0  0  0  0
   -2.0925    4.0730   -1.3167 H   0  0  0  0  0  0  0  0  0  0  0  0
  1  2  1  0
  2  3  1  0
  3  4  1  0
  4  5  1  0
  5  6  1  0
  6  7  1  0
  6  8  1  0
  6  9  1  1
  2 10  1  0
 10 11  1  0
 11 12  1  0
 12 13  1  0
 14 13  1  1
 14 15  1  0
 15 16  1  0
 16 17  1  0
 17 18  1  0
 18 19  2  0
 19 20  1  0
 20 21  2  0
 21 22  1  0
 22 23  1  0
 23 24  1  0
 24 25  1  0
 25 26  1  0
 26 27  2  0
 25 28  1  0
 23 29  1  0
 14 30  1  0
 14 10  1  0
 18 13  1  0
 26 21  1  0
  1 31  1  1
  1 32  1  0
  1 33  1  0
  2 34  1  6
  3 35  1  6
  3 36  1  0
  4 37  1  6
  4 38  1  0
  5 39  1  1
  5 40  1  0
  7 41  1  6
  7 42  1  0
  7 43  1  0
  8 44  1  6
  8 45  1  0
  8 46  1  0
  9 47  1  0
 10 48  1  6
 11 49  1  6
 11 50  1  0
 12 51  1  6
 12 52  1  0
 13 53  1  1
 15 54  1  1
 15 55  1  0
 16 56  1  6
 16 57  1  0
 17 58  1  6
 17 59  1  0
 19 60  1  0
 20 61  1  0
 22 62  1  1
 22 63  1  0
 23 64  1  6
 24 65  1  6
 24 66  1  0
 25 67  1  1
 27 68  1  0
 27 69  1  0
 28 70  1  0
 29 71  1  0
 30 72  1  6
 30 73  1  0
 30 74  1  0
M  END
$$$$
