 energy: -92.464379091098 gnorm: 0.000046005670 xtb: 6.5.1 (9af7eec)
     RDKit          3D

 74 76  0  0  0  0  0  0  0  0999 V2000
   -3.3831   -1.2334    3.0559 C   0  0  1  0  0  0  0  0  0  0  0  0
   -3.2633   -0.1026    2.0331 C   0  0  2  0  0  0  0  0  0  0  0  0
   -4.5429   -0.0920    1.1779 C   0  0  1  0  0  0  0  0  0  0  0  0
   -4.7705    1.1593    0.3266 C   0  0  2  0  0  0  0  0  0  0  0  0
   -5.0937    2.4044    1.1507 C   0  0  1  0  0  0  0  0  0  0  0  0
   -5.0572    3.7047    0.3209 C   0  0  2  0  0  0  0  0  0  0  0  0
   -5.2988    4.9009    1.2526 C   0  0  1  0  0  0  0  0  0  0  0  0
   -6.1059    3.6954   -0.7912 C   0  0  1  0  0  0  0  0  0  0  0  0
   -3.8010    3.8435   -0.3247 O   0  0  0  0  0  0  0  0  0  0  0  0
   -2.0136   -0.1950    1.1403 C   0  0  2  0  0  0  0  0  0  0  0  0
   -1.4883   -1.5922    0.8135 C   0  0  2  0  0  0  0  0  0  0  0  0
   -0.2314   -1.2572    0.0193 C   0  0  2  0  0  0  0  0  0  0  0  0
    0.4216   -0.1342    0.8356 C   0  0  2  0  0  0  0  0  0  0  0  0
   -0.7458    0.5795    1.5957 C   0  0  1  0  0  0  0  0  0  0  0  0
   -0.8496    2.0431    1.1514 C   0  0  1  0  0  0  0  0  0  0  0  0
    0.4396    2.8353    1.3665 C   0  0  1  0  0  0  0  0  0  0  0  0
    1.6723    2.0093    0.9552 C   0  0  2  0  0  0  0  0  0  0  0  0
    1.2761    0.8511    0.0844 C   0  0  0  0  0  0  0  0  0  0  0  0
    1.6623    0.6743   -1.1863 C   0  0  0  0  0  0  0  0  0  0  0  0
    2.4446    1.5881   -1.9742 C   0  0  0  0  0  0  0  0  0  0  0  0
    2.8981    1.3852   -3.2244 C   0  0  0  0  0  0  0  0  0  0  0  0
    2.7108    0.1354   -4.0343 C   0  0  1  0  0  0  0  0  0  0  0  0
    2.1692    0.4269   -5.4483 C   0  0  2  0  0  0  0  0  0  0  0  0
    3.0540    1.4630   -6.1494 C   0  0  2  0  0  0  0  0  0  0  0  0
    3.1854    2.7433   -5.3223 C   0  0  2  0  0  0  0  0  0  0  0  0
    3.6464    2.4453   -3.9126 C   0  0  0  0  0  0  0  0  0  0  0  0
    4.6202    3.1464   -3.3425 C   0  0  0  0  0  0  0  0  0  0  0  0
    1.9104    3.3810   -5.2915 O   0  0  0  0  0  0  0  0  0  0  0  0
    0.8203    0.8121   -5.4201 O   0  0  0  0  0  0  0  0  0  0  0  0
   -0.5050    0.5017    3.1038 C   0  0  1  0  0  0  0  0  0  0  0  0
   -3.5423   -2.1856    2.5559 H   0  0  0  0  0  0  0  0  0  0  0  0
   -2.4969   -1.3111    3.6771 H   0  0  0  0  0  0  0  0  0  0  0  0
   -4.2343   -1.0496    3.7092 H   0  0  0  0  0  0  0  0  0  0  0  0
   -3.2186    0.8412    2.5843 H   0  0  0  0  0  0  0  0  0  0  0  0
   -4.5201   -0.9620    0.5175 H   0  0  0  0  0  0  0  0  0  0  0  0
   -5.4029   -0.2106    1.8420 H   0  0  0  0  0  0  0  0  0  0  0  0
   -5.6025    0.9569   -0.3498 H   0  0  0  0  0  0  0  0  0  0  0  0
   -3.8954    1.3706   -0.2897 H   0  0  0  0  0  0  0  0  0  0  0  0
   -6.0785    2.3038    1.6097 H   0  0  0  0  0  0  0  0  0  0  0  0
   -4.3635    2.5032    1.9584 H   0  0  0  0  0  0  0  0  0  0  0  0
   -6.2921    4.8480    1.6891 H   0  0  0  0  0  0  0  0  0  0  0  0
   -4.5661    4.9148    2.0589 H   0  0  0  0  0  0  0  0  0  0  0  0
   -5.2104    5.8283    0.6915 H   0  0  0  0  0  0  0  0  0  0  0  0
   -7.0907    3.4858   -0.3842 H   0  0  0  0  0  0  0  0  0  0  0  0
   -6.1209    4.6635   -1.2844 H   0  0  0  0  0  0  0  0  0  0  0  0
   -5.8510    2.9440   -1.5315 H   0  0  0  0  0  0  0  0  0  0  0  0
   -3.1093    3.8591    0.3463 H   0  0  0  0  0  0  0  0  0  0  0  0
   -2.2883    0.2434    0.1759 H   0  0  0  0  0  0  0  0  0  0  0  0
   -2.2002   -2.1817    0.2374 H   0  0  0  0  0  0  0  0  0  0  0  0
   -1.2284   -2.1434    1.7167 H   0  0  0  0  0  0  0  0  0  0  0  0
   -0.5253   -0.8935   -0.9661 H   0  0  0  0  0  0  0  0  0  0  0  0
    0.4341   -2.1104   -0.1083 H   0  0  0  0  0  0  0  0  0  0  0  0
    1.0695   -0.6019    1.5878 H   0  0  0  0  0  0  0  0  0  0  0  0
   -1.0894    2.0624    0.0857 H   0  0  0  0  0  0  0  0  0  0  0  0
   -1.6684    2.5264    1.6898 H   0  0  0  0  0  0  0  0  0  0  0  0
    0.3886    3.7444    0.7639 H   0  0  0  0  0  0  0  0  0  0  0  0
    0.5292    3.1434    2.4096 H   0  0  0  0  0  0  0  0  0  0  0  0
    2.1493    1.5984    1.8498 H   0  0  0  0  0  0  0  0  0  0  0  0
    2.4066    2.6479    0.4690 H   0  0  0  0  0  0  0  0  0  0  0  0
    1.3564   -0.2312   -1.6872 H   0  0  0  0  0  0  0  0  0  0  0  0
    2.6585    2.5518   -1.5317 H   0  0  0  0  0  0  0  0  0  0  0  0
    3.6803   -0.3624   -4.1374 H   0  0  0  0  0  0  0  0  0  0  0  0
    2.0257   -0.5532   -3.5433 H   0  0  0  0  0  0  0  0  0  0  0  0
    2.1907   -0.5097   -6.0216 H   0  0  0  0  0  0  0  0  0  0  0  0
    2.6124    1.7157   -7.1150 H   0  0  0  0  0  0  0  0  0  0  0  0
    4.0490    1.0473   -6.3128 H   0  0  0  0  0  0  0  0  0  0  0  0
    3.9087    3.4164   -5.8118 H   0  0  0  0  0  0  0  0  0  0  0  0
    4.9493    2.9407   -2.3384 H   0  0  0  0  0  0  0  0  0  0  0  0
    5.1393    3.9309   -3.8684 H   0  0  0  0  0  0  0  0  0  0  0  0
    1.9550    4.1341   -4.6933 H   0  0  0  0  0  0  0  0  0  0  0  0
    0.7956    1.7571   -5.2061 H   0  0  0  0  0  0  0  0  0  0  0  0
    0.4323    0.9866    3.3647 H   0  0  0  0  0  0  0  0  0  0  0  0
   -1.3005    0.9933    3.6590 H   0  0  0  0  0  0  0  0  0  0  0  0
   -0.4439   -0.5337    3.4292 H   0  0  0  0  0  0  0  0  0  0  0  0
  1  2  1  0
  2  3  1  0
  3  4  1  0
  4  5  1  0
  5  6  1  0
  6  7  1  0
  6  8  1  0
  6  9  1  6
  2 10  1  0
 10 11  1  0
 11 12  1  0
 12 13  1  0
 14 13  1  6
 14 15  1  0
 15 16  1  0
 16 17  1  0
 17 18  1  0
 18 19  2  0
 19 20  1  0
 20 21  2  0
 21 22  1  0
 22 23  1  0
 23 24  1  0
 24 25  1  0
 25 26  1  0
 26 27  2  0
 25 28  1  0
 23 29  1  0
 14 30  1  0
 14 10  1  0
 18 13  1  0
 26 21  1  0
  1 31  1  6
  1 32  1  0
  1 33  1  0
  2 34  1  1
  3 35  1  6
  3 36  1  0
  4 37  1  6
  4 38  1  0
  5 39  1  1
  5 40  1  0
  7 41  1  1
  7 42  1  0
  7 43  1  0
  8 44  1  1
  8 45  1  0
  8 46  1  0
  9 47  1  0
 10 48  1  6
 11 49  1  6
 11 50  1  0
 12 51  1  6
 12 52  1  0
 13 53  1  1
 15 54  1  6
 15 55  1  0
 16 56  1  6
 16 57  1  0
 17 58  1  1
 17 59  1  0
 19 60  1  0
 20 61  1  0
 22 62  1  6
 22 63  1  0
 23 64  1  6
 24 65  1  6
 24 66  1  0
 25 67  1  6
 27 68  1  0
 27 69  1  0
 28 70  1  0
 29 71  1  0
 30 72  1  6
 30 73  1  0
 30 74  1  0
M  END
$$$$
