 energy: -92.465998033409 gnorm: 0.000024377564 xtb: 6.5.1 (9af7eec)
     RDKit          3D

 74 76  0  0  0  0  0  0  0  0999 V2000
   -0.9181    1.1895    0.8301 C   0  0  1  0  0  0  0  0  0  0  0  0
   -1.6283    0.5579   -0.3686 C   0  0  2  0  0  0  0  0  0  0  0  0
   -1.8928   -0.9226   -0.0397 C   0  0  1  0  0  0  0  0  0  0  0  0
   -2.7084   -1.7144   -1.0658 C   0  0  2  0  0  0  0  0  0  0  0  0
   -4.0736   -1.0886   -1.3488 C   0  0  1  0  0  0  0  0  0  0  0  0
   -5.0260   -1.9583   -2.1974 C   0  0  2  0  0  0  0  0  0  0  0  0
   -4.4018   -2.3078   -3.5540 C   0  0  1  0  0  0  0  0  0  0  0  0
   -6.3360   -1.1966   -2.4140 C   0  0  1  0  0  0  0  0  0  0  0  0
   -5.3830   -3.1430   -1.5036 O   0  0  0  0  0  0  0  0  0  0  0  0
   -0.8926    0.7076   -1.7165 C   0  0  2  0  0  0  0  0  0  0  0  0
    0.5620    0.1957   -1.6840 C   0  0  2  0  0  0  0  0  0  0  0  0
    1.4883    1.4075   -1.8719 C   0  0  2  0  0  0  0  0  0  0  0  0
    0.5803    2.6473   -1.8231 C   0  0  2  0  0  0  0  0  0  0  0  0
   -0.7893    2.1373   -2.3154 C   0  0  1  0  0  0  0  0  0  0  0  0
   -0.7780    1.9949   -3.8490 C   0  0  1  0  0  0  0  0  0  0  0  0
   -0.3152    3.2565   -4.5684 C   0  0  1  0  0  0  0  0  0  0  0  0
    1.0839    3.6505   -4.0964 C   0  0  2  0  0  0  0  0  0  0  0  0
    1.1051    3.8125   -2.6048 C   0  0  0  0  0  0  0  0  0  0  0  0
    1.5807    4.9387   -2.0522 C   0  0  0  0  0  0  0  0  0  0  0  0
    1.6247    5.2756   -0.6544 C   0  0  0  0  0  0  0  0  0  0  0  0
    2.3204    6.2908   -0.1125 C   0  0  0  0  0  0  0  0  0  0  0  0
    2.1858    6.6614    1.3355 C   0  0  1  0  0  0  0  0  0  0  0  0
    1.6229    8.0950    1.5113 C   0  0  2  0  0  0  0  0  0  0  0  0
    1.8517    8.9273    0.2396 C   0  0  2  0  0  0  0  0  0  0  0  0
    3.2111    8.6130   -0.3808 C   0  0  2  0  0  0  0  0  0  0  0  0
    3.2372    7.1655   -0.8397 C   0  0  0  0  0  0  0  0  0  0  0  0
    4.1031    6.7632   -1.7667 C   0  0  0  0  0  0  0  0  0  0  0  0
    4.2185    8.8703    0.5916 O   0  0  0  0  0  0  0  0  0  0  0  0
    2.1845    8.7251    2.6336 O   0  0  0  0  0  0  0  0  0  0  0  0
   -1.9150    3.0858   -1.9100 C   0  0  1  0  0  0  0  0  0  0  0  0
    0.0885    0.7988    0.9514 H   0  0  0  0  0  0  0  0  0  0  0  0
   -0.8563    2.2694    0.7382 H   0  0  0  0  0  0  0  0  0  0  0  0
   -1.4735    0.9697    1.7403 H   0  0  0  0  0  0  0  0  0  0  0  0
   -2.6018    1.0448   -0.4690 H   0  0  0  0  0  0  0  0  0  0  0  0
   -0.9391   -1.4354    0.1052 H   0  0  0  0  0  0  0  0  0  0  0  0
   -2.4260   -0.9583    0.9138 H   0  0  0  0  0  0  0  0  0  0  0  0
   -2.8471   -2.7197   -0.6565 H   0  0  0  0  0  0  0  0  0  0  0  0
   -2.1401   -1.8151   -1.9913 H   0  0  0  0  0  0  0  0  0  0  0  0
   -4.5704   -0.8892   -0.3965 H   0  0  0  0  0  0  0  0  0  0  0  0
   -3.9401   -0.1380   -1.8662 H   0  0  0  0  0  0  0  0  0  0  0  0
   -4.1028   -1.4041   -4.0783 H   0  0  0  0  0  0  0  0  0  0  0  0
   -3.5290   -2.9454   -3.4286 H   0  0  0  0  0  0  0  0  0  0  0  0
   -5.1273   -2.8424   -4.1628 H   0  0  0  0  0  0  0  0  0  0  0  0
   -6.1591   -0.2825   -2.9732 H   0  0  0  0  0  0  0  0  0  0  0  0
   -7.0341   -1.8231   -2.9622 H   0  0  0  0  0  0  0  0  0  0  0  0
   -6.7809   -0.9502   -1.4541 H   0  0  0  0  0  0  0  0  0  0  0  0
   -4.5944   -3.6838   -1.3906 H   0  0  0  0  0  0  0  0  0  0  0  0
   -1.4711    0.1114   -2.4263 H   0  0  0  0  0  0  0  0  0  0  0  0
    0.7264   -0.5339   -2.4779 H   0  0  0  0  0  0  0  0  0  0  0  0
    0.7758   -0.3102   -0.7449 H   0  0  0  0  0  0  0  0  0  0  0  0
    2.0028    1.3485   -2.8304 H   0  0  0  0  0  0  0  0  0  0  0  0
    2.2525    1.4606   -1.0967 H   0  0  0  0  0  0  0  0  0  0  0  0
    0.4730    2.9384   -0.7791 H   0  0  0  0  0  0  0  0  0  0  0  0
   -0.1113    1.1773   -4.1279 H   0  0  0  0  0  0  0  0  0  0  0  0
   -1.7834    1.7311   -4.1880 H   0  0  0  0  0  0  0  0  0  0  0  0
   -0.3030    3.0768   -5.6462 H   0  0  0  0  0  0  0  0  0  0  0  0
   -1.0062    4.0797   -4.3812 H   0  0  0  0  0  0  0  0  0  0  0  0
    1.3993    4.5763   -4.5812 H   0  0  0  0  0  0  0  0  0  0  0  0
    1.7871    2.8662   -4.3929 H   0  0  0  0  0  0  0  0  0  0  0  0
    1.9661    5.7035   -2.7163 H   0  0  0  0  0  0  0  0  0  0  0  0
    1.0015    4.6957    0.0135 H   0  0  0  0  0  0  0  0  0  0  0  0
    1.5568    5.9456    1.8643 H   0  0  0  0  0  0  0  0  0  0  0  0
    3.1759    6.6435    1.8010 H   0  0  0  0  0  0  0  0  0  0  0  0
    0.5482    8.0458    1.7175 H   0  0  0  0  0  0  0  0  0  0  0  0
    1.7984    9.9842    0.5046 H   0  0  0  0  0  0  0  0  0  0  0  0
    1.0792    8.7096   -0.4989 H   0  0  0  0  0  0  0  0  0  0  0  0
    3.3801    9.2684   -1.2518 H   0  0  0  0  0  0  0  0  0  0  0  0
    4.1955    5.7293   -2.0487 H   0  0  0  0  0  0  0  0  0  0  0  0
    4.7619    7.4593   -2.2623 H   0  0  0  0  0  0  0  0  0  0  0  0
    5.0655    8.5812    0.2368 H   0  0  0  0  0  0  0  0  0  0  0  0
    3.1008    8.9354    2.4026 H   0  0  0  0  0  0  0  0  0  0  0  0
   -1.7508    4.0652   -2.3526 H   0  0  0  0  0  0  0  0  0  0  0  0
   -2.8770    2.7105   -2.2545 H   0  0  0  0  0  0  0  0  0  0  0  0
   -1.9622    3.2213   -0.8342 H   0  0  0  0  0  0  0  0  0  0  0  0
  1  2  1  0
  2  3  1  0
  3  4  1  0
  4  5  1  0
  5  6  1  0
  6  7  1  0
  6  8  1  0
  6  9  1  1
  2 10  1  0
 10 11  1  0
 11 12  1  0
 12 13  1  0
 14 13  1  1
 14 15  1  0
 15 16  1  0
 16 17  1  0
 17 18  1  0
 18 19  2  0
 19 20  1  0
 20 21  2  0
 21 22  1  0
 22 23  1  0
 23 24  1  0
 24 25  1  0
 25 26  1  0
 26 27  2  0
 25 28  1  0
 23 29  1  0
 14 30  1  0
 14 10  1  0
 18 13  1  0
 26 21  1  0
  1 31  1  1
  1 32  1  0
  1 33  1  0
  2 34  1  6
  3 35  1  1
  3 36  1  0
  4 37  1  1
  4 38  1  0
  5 39  1  1
  5 40  1  0
  7 41  1  6
  7 42  1  0
  7 43  1  0
  8 44  1  6
  8 45  1  0
  8 46  1  0
  9 47  1  0
 10 48  1  6
 11 49  1  6
 11 50  1  0
 12 51  1  6
 12 52  1  0
 13 53  1  1
 15 54  1  1
 15 55  1  0
 16 56  1  6
 16 57  1  0
 17 58  1  6
 17 59  1  0
 19 60  1  0
 20 61  1  0
 22 62  1  1
 22 63  1  0
 23 64  1  1
 24 65  1  1
 24 66  1  0
 25 67  1  6
 27 68  1  0
 27 69  1  0
 28 70  1  0
 29 71  1  0
 30 72  1  6
 30 73  1  0
 30 74  1  0
M  END
$$$$
