 energy: -92.465027928007 gnorm: 0.000035957593 xtb: 6.5.1 (9af7eec)
     RDKit          3D

 74 76  0  0  0  0  0  0  0  0999 V2000
   -4.2550    0.5485    3.2880 C   0  0  1  0  0  0  0  0  0  0  0  0
   -3.5159    0.4959    1.9514 C   0  0  2  0  0  0  0  0  0  0  0  0
   -4.1754   -0.5373    1.0234 C   0  0  1  0  0  0  0  0  0  0  0  0
   -5.6399   -0.2366    0.7051 C   0  0  2  0  0  0  0  0  0  0  0  0
   -6.1691   -1.1884   -0.3649 C   0  0  1  0  0  0  0  0  0  0  0  0
   -7.6527   -1.0092   -0.7435 C   0  0  2  0  0  0  0  0  0  0  0  0
   -7.9124    0.3778   -1.3431 C   0  0  1  0  0  0  0  0  0  0  0  0
   -8.5776   -1.2534    0.4483 C   0  0  1  0  0  0  0  0  0  0  0  0
   -7.9955   -2.0091   -1.6971 O   0  0  0  0  0  0  0  0  0  0  0  0
   -2.0136    0.1737    2.0790 C   0  0  2  0  0  0  0  0  0  0  0  0
   -1.6100   -0.7753    3.2071 C   0  0  2  0  0  0  0  0  0  0  0  0
   -0.0906   -0.7433    3.1051 C   0  0  2  0  0  0  0  0  0  0  0  0
    0.2227    0.7479    2.9324 C   0  0  2  0  0  0  0  0  0  0  0  0
   -1.0223    1.3660    2.2153 C   0  0  1  0  0  0  0  0  0  0  0  0
   -0.6203    1.8568    0.8194 C   0  0  1  0  0  0  0  0  0  0  0  0
    0.4845    2.9127    0.8468 C   0  0  1  0  0  0  0  0  0  0  0  0
    1.5745    2.5502    1.8721 C   0  0  2  0  0  0  0  0  0  0  0  0
    1.5089    1.0939    2.2299 C   0  0  0  0  0  0  0  0  0  0  0  0
    2.4771    0.1990    1.9954 C   0  0  0  0  0  0  0  0  0  0  0  0
    3.7459    0.4462    1.3603 C   0  0  0  0  0  0  0  0  0  0  0  0
    4.6744   -0.4882    1.1030 C   0  0  0  0  0  0  0  0  0  0  0  0
    6.0134   -0.1478    0.5151 C   0  0  1  0  0  0  0  0  0  0  0  0
    7.1635   -0.6261    1.4266 C   0  0  2  0  0  0  0  0  0  0  0  0
    7.0069   -2.1214    1.7297 C   0  0  2  0  0  0  0  0  0  0  0  0
    5.6295   -2.4402    2.3191 C   0  0  2  0  0  0  0  0  0  0  0  0
    4.5309   -1.9155    1.4215 C   0  0  0  0  0  0  0  0  0  0  0  0
    3.5473   -2.6903    0.9840 C   0  0  0  0  0  0  0  0  0  0  0  0
    5.5471   -1.8328    3.6057 O   0  0  0  0  0  0  0  0  0  0  0  0
    7.2538    0.1423    2.5968 O   0  0  0  0  0  0  0  0  0  0  0  0
   -1.5797    2.5233    3.0437 C   0  0  1  0  0  0  0  0  0  0  0  0
   -4.3532   -0.4495    3.7082 H   0  0  0  0  0  0  0  0  0  0  0  0
   -3.7384    1.1765    4.0056 H   0  0  0  0  0  0  0  0  0  0  0  0
   -5.2512    0.9608    3.1495 H   0  0  0  0  0  0  0  0  0  0  0  0
   -3.6107    1.4725    1.4643 H   0  0  0  0  0  0  0  0  0  0  0  0
   -3.6199   -0.5642    0.0821 H   0  0  0  0  0  0  0  0  0  0  0  0
   -4.1018   -1.5277    1.4780 H   0  0  0  0  0  0  0  0  0  0  0  0
   -5.7213    0.7946    0.3560 H   0  0  0  0  0  0  0  0  0  0  0  0
   -6.2403   -0.3415    1.6072 H   0  0  0  0  0  0  0  0  0  0  0  0
   -5.5687   -1.0687   -1.2732 H   0  0  0  0  0  0  0  0  0  0  0  0
   -6.0394   -2.2184   -0.0228 H   0  0  0  0  0  0  0  0  0  0  0  0
   -7.8031    1.1522   -0.5902 H   0  0  0  0  0  0  0  0  0  0  0  0
   -7.2176    0.5802   -2.1571 H   0  0  0  0  0  0  0  0  0  0  0  0
   -8.9261    0.4166   -1.7355 H   0  0  0  0  0  0  0  0  0  0  0  0
   -8.4749   -0.4670    1.1890 H   0  0  0  0  0  0  0  0  0  0  0  0
   -9.6059   -1.2779    0.0979 H   0  0  0  0  0  0  0  0  0  0  0  0
   -8.3492   -2.2131    0.9032 H   0  0  0  0  0  0  0  0  0  0  0  0
   -7.4531   -1.8841   -2.4835 H   0  0  0  0  0  0  0  0  0  0  0  0
   -1.7310   -0.3330    1.1484 H   0  0  0  0  0  0  0  0  0  0  0  0
   -2.0175   -1.7766    3.0744 H   0  0  0  0  0  0  0  0  0  0  0  0
   -1.9266   -0.3948    4.1774 H   0  0  0  0  0  0  0  0  0  0  0  0
    0.2193   -1.3029    2.2211 H   0  0  0  0  0  0  0  0  0  0  0  0
    0.4038   -1.1690    3.9778 H   0  0  0  0  0  0  0  0  0  0  0  0
    0.2837    1.1932    3.9337 H   0  0  0  0  0  0  0  0  0  0  0  0
   -0.2562    0.9978    0.2498 H   0  0  0  0  0  0  0  0  0  0  0  0
   -1.4962    2.2523    0.3007 H   0  0  0  0  0  0  0  0  0  0  0  0
    0.9248    2.9741   -0.1502 H   0  0  0  0  0  0  0  0  0  0  0  0
    0.0682    3.8944    1.0771 H   0  0  0  0  0  0  0  0  0  0  0  0
    1.4164    3.1224    2.7909 H   0  0  0  0  0  0  0  0  0  0  0  0
    2.5530    2.8274    1.4870 H   0  0  0  0  0  0  0  0  0  0  0  0
    2.3256   -0.8219    2.3167 H   0  0  0  0  0  0  0  0  0  0  0  0
    3.9823    1.4668    1.0943 H   0  0  0  0  0  0  0  0  0  0  0  0
    6.1213   -0.6405   -0.4559 H   0  0  0  0  0  0  0  0  0  0  0  0
    6.1030    0.9297    0.3715 H   0  0  0  0  0  0  0  0  0  0  0  0
    8.1125   -0.4636    0.8986 H   0  0  0  0  0  0  0  0  0  0  0  0
    7.7717   -2.4201    2.4487 H   0  0  0  0  0  0  0  0  0  0  0  0
    7.1372   -2.6991    0.8137 H   0  0  0  0  0  0  0  0  0  0  0  0
    5.5278   -3.5324    2.4312 H   0  0  0  0  0  0  0  0  0  0  0  0
    2.7777   -2.3087    0.3350 H   0  0  0  0  0  0  0  0  0  0  0  0
    3.4921   -3.7363    1.2388 H   0  0  0  0  0  0  0  0  0  0  0  0
    4.6394   -1.8971    3.9207 H   0  0  0  0  0  0  0  0  0  0  0  0
    6.5911   -0.2004    3.2157 H   0  0  0  0  0  0  0  0  0  0  0  0
   -0.8316    3.3026    3.1599 H   0  0  0  0  0  0  0  0  0  0  0  0
   -2.4518    2.9661    2.5694 H   0  0  0  0  0  0  0  0  0  0  0  0
   -1.8586    2.1842    4.0382 H   0  0  0  0  0  0  0  0  0  0  0  0
  1  2  1  0
  2  3  1  0
  3  4  1  0
  4  5  1  0
  5  6  1  0
  6  7  1  0
  6  8  1  0
  6  9  1  6
  2 10  1  0
 10 11  1  0
 11 12  1  0
 12 13  1  0
 14 13  1  1
 14 15  1  0
 15 16  1  0
 16 17  1  0
 17 18  1  0
 18 19  2  0
 19 20  1  0
 20 21  2  0
 21 22  1  0
 22 23  1  0
 23 24  1  0
 24 25  1  0
 25 26  1  0
 26 27  2  0
 25 28  1  0
 23 29  1  0
 14 30  1  0
 14 10  1  0
 18 13  1  0
 26 21  1  0
  1 31  1  1
  1 32  1  0
  1 33  1  0
  2 34  1  6
  3 35  1  6
  3 36  1  0
  4 37  1  6
  4 38  1  0
  5 39  1  6
  5 40  1  0
  7 41  1  1
  7 42  1  0
  7 43  1  0
  8 44  1  1
  8 45  1  0
  8 46  1  0
  9 47  1  0
 10 48  1  6
 11 49  1  6
 11 50  1  0
 12 51  1  6
 12 52  1  0
 13 53  1  1
 15 54  1  6
 15 55  1  0
 16 56  1  6
 16 57  1  0
 17 58  1  1
 17 59  1  0
 19 60  1  0
 20 61  1  0
 22 62  1  6
 22 63  1  0
 23 64  1  6
 24 65  1  1
 24 66  1  0
 25 67  1  1
 27 68  1  0
 27 69  1  0
 28 70  1  0
 29 71  1  0
 30 72  1  1
 30 73  1  0
 30 74  1  0
M  END
$$$$
