 energy: -92.466654104838 gnorm: 0.000034313269 xtb: 6.5.1 (9af7eec)
     RDKit          3D

 74 76  0  0  0  0  0  0  0  0999 V2000
   -3.0016    0.8624    1.5643 C   0  0  1  0  0  0  0  0  0  0  0  0
   -2.8676   -0.5208    0.9216 C   0  0  2  0  0  0  0  0  0  0  0  0
   -1.9295   -1.3767    1.7875 C   0  0  1  0  0  0  0  0  0  0  0  0
   -2.6401   -2.0054    2.9841 C   0  0  2  0  0  0  0  0  0  0  0  0
   -1.7161   -2.8463    3.8680 C   0  0  1  0  0  0  0  0  0  0  0  0
   -0.5917   -2.0900    4.6088 C   0  0  2  0  0  0  0  0  0  0  0  0
    0.0585   -3.0548    5.6130 C   0  0  1  0  0  0  0  0  0  0  0  0
   -1.1158   -0.8577    5.3455 C   0  0  1  0  0  0  0  0  0  0  0  0
    0.3982   -1.6170    3.7074 O   0  0  0  0  0  0  0  0  0  0  0  0
   -2.3271   -0.4056   -0.5145 C   0  0  2  0  0  0  0  0  0  0  0  0
   -2.9785    0.7283   -1.3245 C   0  0  2  0  0  0  0  0  0  0  0  0
   -2.7493    0.3301   -2.7745 C   0  0  2  0  0  0  0  0  0  0  0  0
   -3.1051   -1.1582   -2.7341 C   0  0  2  0  0  0  0  0  0  0  0  0
   -2.4342   -1.6772   -1.4319 C   0  0  1  0  0  0  0  0  0  0  0  0
   -1.0176   -2.2132   -1.6997 C   0  0  1  0  0  0  0  0  0  0  0  0
   -0.9324   -3.1347   -2.9087 C   0  0  1  0  0  0  0  0  0  0  0  0
   -1.3721   -2.3676   -4.1526 C   0  0  2  0  0  0  0  0  0  0  0  0
   -2.7870   -1.9003   -3.9955 C   0  0  0  0  0  0  0  0  0  0  0  0
   -3.6846   -2.1388   -4.9671 C   0  0  0  0  0  0  0  0  0  0  0  0
   -5.0612   -1.7339   -4.9899 C   0  0  0  0  0  0  0  0  0  0  0  0
   -5.9433   -1.9409   -5.9869 C   0  0  0  0  0  0  0  0  0  0  0  0
   -5.6537   -2.6186   -7.2928 C   0  0  1  0  0  0  0  0  0  0  0  0
   -5.8565   -1.6692   -8.4988 C   0  0  2  0  0  0  0  0  0  0  0  0
   -6.8449   -0.5457   -8.1490 C   0  0  2  0  0  0  0  0  0  0  0  0
   -7.9415   -1.0580   -7.2180 C   0  0  2  0  0  0  0  0  0  0  0  0
   -7.3199   -1.4537   -5.8916 C   0  0  0  0  0  0  0  0  0  0  0  0
   -8.0265   -1.3842   -4.7656 C   0  0  0  0  0  0  0  0  0  0  0  0
   -8.5920   -2.1556   -7.8493 O   0  0  0  0  0  0  0  0  0  0  0  0
   -6.2866   -2.3829   -9.6303 O   0  0  0  0  0  0  0  0  0  0  0  0
   -3.3157   -2.8030   -0.8850 C   0  0  1  0  0  0  0  0  0  0  0  0
   -2.0571    1.3995    1.5085 H   0  0  0  0  0  0  0  0  0  0  0  0
   -3.7689    1.4591    1.0795 H   0  0  0  0  0  0  0  0  0  0  0  0
   -3.2735    0.7621    2.6123 H   0  0  0  0  0  0  0  0  0  0  0  0
   -3.8606   -0.9782    0.9046 H   0  0  0  0  0  0  0  0  0  0  0  0
   -1.4926   -2.1759    1.1888 H   0  0  0  0  0  0  0  0  0  0  0  0
   -1.1074   -0.7530    2.1387 H   0  0  0  0  0  0  0  0  0  0  0  0
   -3.4363   -2.6602    2.6167 H   0  0  0  0  0  0  0  0  0  0  0  0
   -3.1137   -1.2329    3.5895 H   0  0  0  0  0  0  0  0  0  0  0  0
   -2.3265   -3.3487    4.6218 H   0  0  0  0  0  0  0  0  0  0  0  0
   -1.2525   -3.6240    3.2520 H   0  0  0  0  0  0  0  0  0  0  0  0
   -0.6413   -3.3153    6.4021 H   0  0  0  0  0  0  0  0  0  0  0  0
    0.3768   -3.9701    5.1154 H   0  0  0  0  0  0  0  0  0  0  0  0
    0.9307   -2.5833    6.0603 H   0  0  0  0  0  0  0  0  0  0  0  0
   -1.9714   -1.1181    5.9620 H   0  0  0  0  0  0  0  0  0  0  0  0
   -0.3302   -0.4526    5.9775 H   0  0  0  0  0  0  0  0  0  0  0  0
   -1.3999   -0.0923    4.6305 H   0  0  0  0  0  0  0  0  0  0  0  0
    0.7794   -2.3717    3.2459 H   0  0  0  0  0  0  0  0  0  0  0  0
   -1.2644   -0.1602   -0.4150 H   0  0  0  0  0  0  0  0  0  0  0  0
   -2.5510    1.7005   -1.0858 H   0  0  0  0  0  0  0  0  0  0  0  0
   -4.0520    0.7636   -1.1283 H   0  0  0  0  0  0  0  0  0  0  0  0
   -1.7049    0.4723   -3.0536 H   0  0  0  0  0  0  0  0  0  0  0  0
   -3.3743    0.8828   -3.4752 H   0  0  0  0  0  0  0  0  0  0  0  0
   -4.1841   -1.2115   -2.5655 H   0  0  0  0  0  0  0  0  0  0  0  0
   -0.3424   -1.3729   -1.8777 H   0  0  0  0  0  0  0  0  0  0  0  0
   -0.6586   -2.7363   -0.8105 H   0  0  0  0  0  0  0  0  0  0  0  0
    0.0961   -3.4820   -3.0304 H   0  0  0  0  0  0  0  0  0  0  0  0
   -1.5659   -4.0128   -2.7754 H   0  0  0  0  0  0  0  0  0  0  0  0
   -1.2756   -2.9917   -5.0429 H   0  0  0  0  0  0  0  0  0  0  0  0
   -0.7161   -1.5004   -4.2799 H   0  0  0  0  0  0  0  0  0  0  0  0
   -3.3344   -2.6798   -5.8362 H   0  0  0  0  0  0  0  0  0  0  0  0
   -5.4202   -1.1859   -4.1302 H   0  0  0  0  0  0  0  0  0  0  0  0
   -4.6515   -3.0385   -7.3236 H   0  0  0  0  0  0  0  0  0  0  0  0
   -6.3606   -3.4457   -7.4121 H   0  0  0  0  0  0  0  0  0  0  0  0
   -4.8963   -1.2270   -8.7857 H   0  0  0  0  0  0  0  0  0  0  0  0
   -7.2837   -0.1706   -9.0746 H   0  0  0  0  0  0  0  0  0  0  0  0
   -6.3271    0.2732   -7.6481 H   0  0  0  0  0  0  0  0  0  0  0  0
   -8.6804   -0.2584   -7.0428 H   0  0  0  0  0  0  0  0  0  0  0  0
   -7.6275   -1.7060   -3.8197 H   0  0  0  0  0  0  0  0  0  0  0  0
   -9.0361   -1.0062   -4.7542 H   0  0  0  0  0  0  0  0  0  0  0  0
   -9.2249   -2.5313   -7.2288 H   0  0  0  0  0  0  0  0  0  0  0  0
   -7.1972   -2.6582   -9.4528 H   0  0  0  0  0  0  0  0  0  0  0  0
   -3.4439   -3.5632   -1.6530 H   0  0  0  0  0  0  0  0  0  0  0  0
   -2.8836   -3.2756   -0.0082 H   0  0  0  0  0  0  0  0  0  0  0  0
   -4.3045   -2.4331   -0.6254 H   0  0  0  0  0  0  0  0  0  0  0  0
  1  2  1  0
  2  3  1  0
  3  4  1  0
  4  5  1  0
  5  6  1  0
  6  7  1  0
  6  8  1  0
  6  9  1  6
  2 10  1  0
 10 11  1  0
 11 12  1  0
 12 13  1  0
 14 13  1  6
 14 15  1  0
 15 16  1  0
 16 17  1  0
 17 18  1  0
 18 19  2  0
 19 20  1  0
 20 21  2  0
 21 22  1  0
 22 23  1  0
 23 24  1  0
 24 25  1  0
 25 26  1  0
 26 27  2  0
 25 28  1  0
 23 29  1  0
 14 30  1  0
 14 10  1  0
 18 13  1  0
 26 21  1  0
  1 31  1  1
  1 32  1  0
  1 33  1  0
  2 34  1  6
  3 35  1  6
  3 36  1  0
  4 37  1  6
  4 38  1  0
  5 39  1  1
  5 40  1  0
  7 41  1  1
  7 42  1  0
  7 43  1  0
  8 44  1  1
  8 45  1  0
  8 46  1  0
  9 47  1  0
 10 48  1  1
 11 49  1  1
 11 50  1  0
 12 51  1  6
 12 52  1  0
 13 53  1  1
 15 54  1  6
 15 55  1  0
 16 56  1  6
 16 57  1  0
 17 58  1  6
 17 59  1  0
 19 60  1  0
 20 61  1  0
 22 62  1  1
 22 63  1  0
 23 64  1  6
 24 65  1  6
 24 66  1  0
 25 67  1  1
 27 68  1  0
 27 69  1  0
 28 70  1  0
 29 71  1  0
 30 72  1  6
 30 73  1  0
 30 74  1  0
M  END
$$$$
