 energy: -92.466973791474 gnorm: 0.000047243056 xtb: 6.5.1 (9af7eec)
     RDKit          3D

 74 76  0  0  0  0  0  0  0  0999 V2000
   -2.8264    0.9771    1.4245 C   0  0  1  0  0  0  0  0  0  0  0  0
   -2.7610   -0.4276    0.8190 C   0  0  2  0  0  0  0  0  0  0  0  0
   -1.8943   -1.3128    1.7295 C   0  0  1  0  0  0  0  0  0  0  0  0
   -2.6865   -1.9076    2.8917 C   0  0  2  0  0  0  0  0  0  0  0  0
   -1.8429   -2.7790    3.8246 C   0  0  1  0  0  0  0  0  0  0  0  0
   -0.7311   -2.0635    4.6222 C   0  0  2  0  0  0  0  0  0  0  0  0
   -0.1712   -3.0493    5.6600 C   0  0  1  0  0  0  0  0  0  0  0  0
   -1.2460   -0.8104    5.3294 C   0  0  1  0  0  0  0  0  0  0  0  0
    0.3216   -1.6308    3.7729 O   0  0  0  0  0  0  0  0  0  0  0  0
   -2.1879   -0.3834   -0.6080 C   0  0  2  0  0  0  0  0  0  0  0  0
   -2.7703    0.7581   -1.4612 C   0  0  2  0  0  0  0  0  0  0  0  0
   -2.5882    0.2922   -2.8984 C   0  0  2  0  0  0  0  0  0  0  0  0
   -3.0260   -1.1699   -2.7911 C   0  0  2  0  0  0  0  0  0  0  0  0
   -2.3457   -1.6746   -1.4900 C   0  0  1  0  0  0  0  0  0  0  0  0
   -0.9457   -2.2451   -1.7761 C   0  0  1  0  0  0  0  0  0  0  0  0
   -0.9039   -3.2038   -2.9587 C   0  0  1  0  0  0  0  0  0  0  0  0
   -1.3758   -2.4742   -4.2147 C   0  0  2  0  0  0  0  0  0  0  0  0
   -2.7809   -1.9921   -4.0172 C   0  0  0  0  0  0  0  0  0  0  0  0
   -3.7303   -2.2870   -4.9191 C   0  0  0  0  0  0  0  0  0  0  0  0
   -5.1281   -1.9555   -4.8554 C   0  0  0  0  0  0  0  0  0  0  0  0
   -6.0076   -2.0550   -5.8677 C   0  0  0  0  0  0  0  0  0  0  0  0
   -7.4788   -1.8377   -5.6646 C   0  0  1  0  0  0  0  0  0  0  0  0
   -8.2946   -3.1202   -5.9686 C   0  0  2  0  0  0  0  0  0  0  0  0
   -7.4975   -4.0666   -6.8805 C   0  0  2  0  0  0  0  0  0  0  0  0
   -6.7138   -3.2814   -7.9299 C   0  0  2  0  0  0  0  0  0  0  0  0
   -5.6717   -2.4162   -7.2427 C   0  0  0  0  0  0  0  0  0  0  0  0
   -4.6058   -1.9796   -7.9090 C   0  0  0  0  0  0  0  0  0  0  0  0
   -7.6329   -2.4949   -8.6807 O   0  0  0  0  0  0  0  0  0  0  0  0
   -9.5404   -2.8053   -6.5355 O   0  0  0  0  0  0  0  0  0  0  0  0
   -3.2409   -2.7708   -0.9077 C   0  0  1  0  0  0  0  0  0  0  0  0
   -1.8519    1.4581    1.3725 H   0  0  0  0  0  0  0  0  0  0  0  0
   -3.5500    1.6047    0.9123 H   0  0  0  0  0  0  0  0  0  0  0  0
   -3.1204    0.9178    2.4697 H   0  0  0  0  0  0  0  0  0  0  0  0
   -3.7790   -0.8258    0.7912 H   0  0  0  0  0  0  0  0  0  0  0  0
   -1.4570   -2.1293    1.1549 H   0  0  0  0  0  0  0  0  0  0  0  0
   -1.0681   -0.7175    2.1186 H   0  0  0  0  0  0  0  0  0  0  0  0
   -3.4880   -2.5331    2.4872 H   0  0  0  0  0  0  0  0  0  0  0  0
   -3.1595   -1.1128    3.4682 H   0  0  0  0  0  0  0  0  0  0  0  0
   -2.5110   -3.2550    4.5461 H   0  0  0  0  0  0  0  0  0  0  0  0
   -1.3779   -3.5764    3.2353 H   0  0  0  0  0  0  0  0  0  0  0  0
   -0.9209   -3.2815    6.4110 H   0  0  0  0  0  0  0  0  0  0  0  0
    0.1385   -3.9771    5.1803 H   0  0  0  0  0  0  0  0  0  0  0  0
    0.6932   -2.6097    6.1525 H   0  0  0  0  0  0  0  0  0  0  0  0
   -2.1414   -1.0367    5.9009 H   0  0  0  0  0  0  0  0  0  0  0  0
   -0.4794   -0.4327    6.0007 H   0  0  0  0  0  0  0  0  0  0  0  0
   -1.4639   -0.0370    4.5998 H   0  0  0  0  0  0  0  0  0  0  0  0
    0.6945   -2.4004    3.3298 H   0  0  0  0  0  0  0  0  0  0  0  0
   -1.1160   -0.1904   -0.4938 H   0  0  0  0  0  0  0  0  0  0  0  0
   -2.2775    1.7085   -1.2640 H   0  0  0  0  0  0  0  0  0  0  0  0
   -3.8367    0.8723   -1.2579 H   0  0  0  0  0  0  0  0  0  0  0  0
   -1.5429    0.3659   -3.1998 H   0  0  0  0  0  0  0  0  0  0  0  0
   -3.1955    0.8524   -3.6088 H   0  0  0  0  0  0  0  0  0  0  0  0
   -4.1015   -1.1497   -2.5953 H   0  0  0  0  0  0  0  0  0  0  0  0
   -0.2605   -1.4226   -1.9945 H   0  0  0  0  0  0  0  0  0  0  0  0
   -0.5748   -2.7476   -0.8796 H   0  0  0  0  0  0  0  0  0  0  0  0
    0.1179   -3.5639   -3.0993 H   0  0  0  0  0  0  0  0  0  0  0  0
   -1.5401   -4.0717   -2.7790 H   0  0  0  0  0  0  0  0  0  0  0  0
   -1.3193   -3.1313   -5.0845 H   0  0  0  0  0  0  0  0  0  0  0  0
   -0.7149   -1.6206   -4.3948 H   0  0  0  0  0  0  0  0  0  0  0  0
   -3.4361   -2.8547   -5.7941 H   0  0  0  0  0  0  0  0  0  0  0  0
   -5.5190   -1.6509   -3.8933 H   0  0  0  0  0  0  0  0  0  0  0  0
   -7.6860   -1.4947   -4.6513 H   0  0  0  0  0  0  0  0  0  0  0  0
   -7.8236   -1.0632   -6.3564 H   0  0  0  0  0  0  0  0  0  0  0  0
   -8.5280   -3.6388   -5.0325 H   0  0  0  0  0  0  0  0  0  0  0  0
   -8.1973   -4.7460   -7.3690 H   0  0  0  0  0  0  0  0  0  0  0  0
   -6.7903   -4.6522   -6.2919 H   0  0  0  0  0  0  0  0  0  0  0  0
   -6.2044   -3.9829   -8.6118 H   0  0  0  0  0  0  0  0  0  0  0  0
   -3.8974   -1.3012   -7.4675 H   0  0  0  0  0  0  0  0  0  0  0  0
   -4.4181   -2.2770   -8.9292 H   0  0  0  0  0  0  0  0  0  0  0  0
   -7.1323   -1.9247   -9.2733 H   0  0  0  0  0  0  0  0  0  0  0  0
   -9.3642   -2.5026   -7.4380 H   0  0  0  0  0  0  0  0  0  0  0  0
   -3.4104   -3.5329   -1.6659 H   0  0  0  0  0  0  0  0  0  0  0  0
   -2.7979   -3.2490   -0.0396 H   0  0  0  0  0  0  0  0  0  0  0  0
   -4.2121   -2.3732   -0.6244 H   0  0  0  0  0  0  0  0  0  0  0  0
  1  2  1  0
  2  3  1  0
  3  4  1  0
  4  5  1  0
  5  6  1  0
  6  7  1  0
  6  8  1  0
  6  9  1  6
  2 10  1  0
 10 11  1  0
 11 12  1  0
 12 13  1  0
 14 13  1  6
 14 15  1  0
 15 16  1  0
 16 17  1  0
 17 18  1  0
 18 19  2  0
 19 20  1  0
 20 21  2  0
 21 22  1  0
 22 23  1  0
 23 24  1  0
 24 25  1  0
 25 26  1  0
 26 27  2  0
 25 28  1  0
 23 29  1  0
 14 30  1  0
 14 10  1  0
 18 13  1  0
 26 21  1  0
  1 31  1  1
  1 32  1  0
  1 33  1  0
  2 34  1  6
  3 35  1  6
  3 36  1  0
  4 37  1  6
  4 38  1  0
  5 39  1  1
  5 40  1  0
  7 41  1  1
  7 42  1  0
  7 43  1  0
  8 44  1  1
  8 45  1  0
  8 46  1  0
  9 47  1  0
 10 48  1  1
 11 49  1  6
 11 50  1  0
 12 51  1  6
 12 52  1  0
 13 53  1  1
 15 54  1  6
 15 55  1  0
 16 56  1  6
 16 57  1  0
 17 58  1  6
 17 59  1  0
 19 60  1  0
 20 61  1  0
 22 62  1  1
 22 63  1  0
 23 64  1  1
 24 65  1  6
 24 66  1  0
 25 67  1  6
 27 68  1  0
 27 69  1  0
 28 70  1  0
 29 71  1  0
 30 72  1  6
 30 73  1  0
 30 74  1  0
M  END
$$$$
