 energy: -92.466907063717 gnorm: 0.000040900959 xtb: 6.5.1 (9af7eec)
     RDKit          3D

 74 76  0  0  0  0  0  0  0  0999 V2000
   -2.3884    0.8751    2.1786 C   0  0  1  0  0  0  0  0  0  0  0  0
   -2.9689    0.9612    0.7673 C   0  0  2  0  0  0  0  0  0  0  0  0
   -3.6195   -0.3835    0.3913 C   0  0  1  0  0  0  0  0  0  0  0  0
   -4.7750   -0.2467   -0.6042 C   0  0  2  0  0  0  0  0  0  0  0  0
   -6.0480    0.2734    0.0650 C   0  0  1  0  0  0  0  0  0  0  0  0
   -7.2167    0.5663   -0.9006 C   0  0  2  0  0  0  0  0  0  0  0  0
   -6.8979    1.7617   -1.8074 C   0  0  1  0  0  0  0  0  0  0  0  0
   -8.4766    0.8656   -0.0845 C   0  0  1  0  0  0  0  0  0  0  0  0
   -7.5269   -0.5741   -1.6853 O   0  0  0  0  0  0  0  0  0  0  0  0
   -1.9700    1.3787   -0.3335 C   0  0  2  0  0  0  0  0  0  0  0  0
   -0.6690    0.5489   -0.3366 C   0  0  2  0  0  0  0  0  0  0  0  0
    0.4851    1.4873    0.0501 C   0  0  2  0  0  0  0  0  0  0  0  0
   -0.1686    2.8160    0.4609 C   0  0  2  0  0  0  0  0  0  0  0  0
   -1.4898    2.8560   -0.3354 C   0  0  1  0  0  0  0  0  0  0  0  0
   -1.2147    3.2516   -1.7980 C   0  0  1  0  0  0  0  0  0  0  0  0
   -0.3898    4.5259   -1.9351 C   0  0  1  0  0  0  0  0  0  0  0  0
    0.9396    4.3765   -1.1951 C   0  0  2  0  0  0  0  0  0  0  0  0
    0.6915    4.0228    0.2414 C   0  0  0  0  0  0  0  0  0  0  0  0
    1.1914    4.7909    1.2227 C   0  0  0  0  0  0  0  0  0  0  0  0
    1.0479    4.5901    2.6384 C   0  0  0  0  0  0  0  0  0  0  0  0
    1.4824    5.4061    3.6165 C   0  0  0  0  0  0  0  0  0  0  0  0
    2.1895    6.7144    3.4138 C   0  0  1  0  0  0  0  0  0  0  0  0
    1.5590    7.8549    4.2384 C   0  0  2  0  0  0  0  0  0  0  0  0
    1.4719    7.4528    5.7140 C   0  0  2  0  0  0  0  0  0  0  0  0
    0.7022    6.1438    5.8966 C   0  0  2  0  0  0  0  0  0  0  0  0
    1.2612    5.0430    5.0220 C   0  0  0  0  0  0  0  0  0  0  0  0
    1.4704    3.8222    5.5039 C   0  0  0  0  0  0  0  0  0  0  0  0
   -0.6632    6.3823    5.5582 O   0  0  0  0  0  0  0  0  0  0  0  0
    0.3146    8.2462    3.7210 O   0  0  0  0  0  0  0  0  0  0  0  0
   -2.4719    3.8499    0.2799 C   0  0  1  0  0  0  0  0  0  0  0  0
   -1.5932    0.1375    2.2429 H   0  0  0  0  0  0  0  0  0  0  0  0
   -1.9951    1.8322    2.5082 H   0  0  0  0  0  0  0  0  0  0  0  0
   -3.1723    0.5836    2.8756 H   0  0  0  0  0  0  0  0  0  0  0  0
   -3.7629    1.7118    0.7866 H   0  0  0  0  0  0  0  0  0  0  0  0
   -2.8608   -1.0448   -0.0313 H   0  0  0  0  0  0  0  0  0  0  0  0
   -4.0019   -0.8648    1.2937 H   0  0  0  0  0  0  0  0  0  0  0  0
   -4.9783   -1.2299   -1.0362 H   0  0  0  0  0  0  0  0  0  0  0  0
   -4.4730    0.4204   -1.4138 H   0  0  0  0  0  0  0  0  0  0  0  0
   -6.3856   -0.4747    0.7857 H   0  0  0  0  0  0  0  0  0  0  0  0
   -5.8305    1.1905    0.6138 H   0  0  0  0  0  0  0  0  0  0  0  0
   -6.6989    2.6479   -1.2110 H   0  0  0  0  0  0  0  0  0  0  0  0
   -6.0305    1.5611   -2.4332 H   0  0  0  0  0  0  0  0  0  0  0  0
   -7.7460    1.9613   -2.4585 H   0  0  0  0  0  0  0  0  0  0  0  0
   -8.3130    1.7147    0.5727 H   0  0  0  0  0  0  0  0  0  0  0  0
   -9.3036    1.0842   -0.7543 H   0  0  0  0  0  0  0  0  0  0  0  0
   -8.7412   -0.0038    0.5107 H   0  0  0  0  0  0  0  0  0  0  0  0
   -6.7875   -0.7489   -2.2769 H   0  0  0  0  0  0  0  0  0  0  0  0
   -2.5020    1.2118   -1.2753 H   0  0  0  0  0  0  0  0  0  0  0  0
   -0.4935    0.1225   -1.3251 H   0  0  0  0  0  0  0  0  0  0  0  0
   -0.7376   -0.2862    0.3578 H   0  0  0  0  0  0  0  0  0  0  0  0
    1.1551    1.6352   -0.7959 H   0  0  0  0  0  0  0  0  0  0  0  0
    1.0812    1.0832    0.8682 H   0  0  0  0  0  0  0  0  0  0  0  0
   -0.4268    2.7500    1.5169 H   0  0  0  0  0  0  0  0  0  0  0  0
   -0.6771    2.4407   -2.2925 H   0  0  0  0  0  0  0  0  0  0  0  0
   -2.1692    3.3788   -2.3153 H   0  0  0  0  0  0  0  0  0  0  0  0
   -0.2024    4.7257   -2.9927 H   0  0  0  0  0  0  0  0  0  0  0  0
   -0.9345    5.3805   -1.5309 H   0  0  0  0  0  0  0  0  0  0  0  0
    1.5148    5.3014   -1.2647 H   0  0  0  0  0  0  0  0  0  0  0  0
    1.5233    3.5870   -1.6771 H   0  0  0  0  0  0  0  0  0  0  0  0
    1.7764    5.6505    0.9235 H   0  0  0  0  0  0  0  0  0  0  0  0
    0.5323    3.6925    2.9530 H   0  0  0  0  0  0  0  0  0  0  0  0
    3.2321    6.6040    3.7286 H   0  0  0  0  0  0  0  0  0  0  0  0
    2.1757    7.0093    2.3663 H   0  0  0  0  0  0  0  0  0  0  0  0
    2.2031    8.7395    4.1445 H   0  0  0  0  0  0  0  0  0  0  0  0
    0.9584    8.2391    6.2699 H   0  0  0  0  0  0  0  0  0  0  0  0
    2.4760    7.3288    6.1217 H   0  0  0  0  0  0  0  0  0  0  0  0
    0.7579    5.8375    6.9541 H   0  0  0  0  0  0  0  0  0  0  0  0
    1.8626    3.0321    4.8871 H   0  0  0  0  0  0  0  0  0  0  0  0
    1.2829    3.5788    6.5370 H   0  0  0  0  0  0  0  0  0  0  0  0
   -1.1399    5.5467    5.5949 H   0  0  0  0  0  0  0  0  0  0  0  0
   -0.3464    7.6265    4.0646 H   0  0  0  0  0  0  0  0  0  0  0  0
   -2.0512    4.8518    0.2504 H   0  0  0  0  0  0  0  0  0  0  0  0
   -3.4106    3.8549   -0.2711 H   0  0  0  0  0  0  0  0  0  0  0  0
   -2.6789    3.6177    1.3205 H   0  0  0  0  0  0  0  0  0  0  0  0
  1  2  1  0
  2  3  1  0
  3  4  1  0
  4  5  1  0
  5  6  1  0
  6  7  1  0
  6  8  1  0
  6  9  1  6
  2 10  1  0
 10 11  1  0
 11 12  1  0
 12 13  1  0
 14 13  1  1
 14 15  1  0
 15 16  1  0
 16 17  1  0
 17 18  1  0
 18 19  2  0
 19 20  1  0
 20 21  2  0
 21 22  1  0
 22 23  1  0
 23 24  1  0
 24 25  1  0
 25 26  1  0
 26 27  2  0
 25 28  1  0
 23 29  1  0
 14 30  1  0
 14 10  1  0
 18 13  1  0
 26 21  1  0
  1 31  1  6
  1 32  1  0
  1 33  1  0
  2 34  1  1
  3 35  1  6
  3 36  1  0
  4 37  1  6
  4 38  1  0
  5 39  1  1
  5 40  1  0
  7 41  1  1
  7 42  1  0
  7 43  1  0
  8 44  1  1
  8 45  1  0
  8 46  1  0
  9 47  1  0
 10 48  1  6
 11 49  1  6
 11 50  1  0
 12 51  1  6
 12 52  1  0
 13 53  1  1
 15 54  1  6
 15 55  1  0
 16 56  1  6
 16 57  1  0
 17 58  1  1
 17 59  1  0
 19 60  1  0
 20 61  1  0
 22 62  1  1
 22 63  1  0
 23 64  1  1
 24 65  1  1
 24 66  1  0
 25 67  1  1
 27 68  1  0
 27 69  1  0
 28 70  1  0
 29 71  1  0
 30 72  1  1
 30 73  1  0
 30 74  1  0
M  END
$$$$
