 energy: -92.467502523066 gnorm: 0.000045436289 xtb: 6.5.1 (9af7eec)
     RDKit          3D

 74 76  0  0  0  0  0  0  0  0999 V2000
   -3.9462   -3.0859   -2.6096 C   0  0  1  0  0  0  0  0  0  0  0  0
   -3.4888   -1.6771   -2.9895 C   0  0  2  0  0  0  0  0  0  0  0  0
   -4.4239   -1.1273   -4.0822 C   0  0  1  0  0  0  0  0  0  0  0  0
   -4.2621    0.3755   -4.3605 C   0  0  2  0  0  0  0  0  0  0  0  0
   -3.5853    0.6680   -5.6998 C   0  0  1  0  0  0  0  0  0  0  0  0
   -3.5445    2.1688   -6.0545 C   0  0  2  0  0  0  0  0  0  0  0  0
   -2.9146    2.3357   -7.4448 C   0  0  1  0  0  0  0  0  0  0  0  0
   -2.7460    2.9723   -5.0275 C   0  0  1  0  0  0  0  0  0  0  0  0
   -4.8545    2.7147   -6.0502 O   0  0  0  0  0  0  0  0  0  0  0  0
   -2.0138   -1.5638   -3.4269 C   0  0  2  0  0  0  0  0  0  0  0  0
   -1.6292   -2.5395   -4.5578 C   0  0  2  0  0  0  0  0  0  0  0  0
   -0.6406   -3.5632   -3.9767 C   0  0  2  0  0  0  0  0  0  0  0  0
   -0.5754   -3.2825   -2.4669 C   0  0  2  0  0  0  0  0  0  0  0  0
   -0.9277   -1.7858   -2.3393 C   0  0  1  0  0  0  0  0  0  0  0  0
    0.2887   -0.9218   -2.7222 C   0  0  1  0  0  0  0  0  0  0  0  0
    1.5615   -1.3029   -1.9754 C   0  0  1  0  0  0  0  0  0  0  0  0
    1.8951   -2.7744   -2.2204 C   0  0  2  0  0  0  0  0  0  0  0  0
    0.7331   -3.6393   -1.8300 C   0  0  0  0  0  0  0  0  0  0  0  0
    0.8905   -4.6195   -0.9284 C   0  0  0  0  0  0  0  0  0  0  0  0
   -0.1066   -5.5503   -0.4677 C   0  0  0  0  0  0  0  0  0  0  0  0
    0.0517   -6.4209    0.5423 C   0  0  0  0  0  0  0  0  0  0  0  0
   -1.0074   -7.4214    0.9066 C   0  0  1  0  0  0  0  0  0  0  0  0
   -0.4518   -8.8607    0.9174 C   0  0  2  0  0  0  0  0  0  0  0  0
    0.7814   -8.9395    1.8252 C   0  0  2  0  0  0  0  0  0  0  0  0
    1.8478   -7.9165    1.4233 C   0  0  2  0  0  0  0  0  0  0  0  0
    1.2634   -6.5222    1.3648 C   0  0  0  0  0  0  0  0  0  0  0  0
    1.8243   -5.5001    1.9988 C   0  0  0  0  0  0  0  0  0  0  0  0
    2.3588   -8.2894    0.1459 O   0  0  0  0  0  0  0  0  0  0  0  0
   -0.1842   -9.3260   -0.3787 O   0  0  0  0  0  0  0  0  0  0  0  0
   -1.3635   -1.4384   -0.9180 C   0  0  1  0  0  0  0  0  0  0  0  0
   -3.4202   -3.4563   -1.7350 H   0  0  0  0  0  0  0  0  0  0  0  0
   -5.0085   -3.0733   -2.3719 H   0  0  0  0  0  0  0  0  0  0  0  0
   -3.7949   -3.7894   -3.4236 H   0  0  0  0  0  0  0  0  0  0  0  0
   -3.6218   -1.0358   -2.1123 H   0  0  0  0  0  0  0  0  0  0  0  0
   -4.2745   -1.6890   -5.0057 H   0  0  0  0  0  0  0  0  0  0  0  0
   -5.4495   -1.3161   -3.7583 H   0  0  0  0  0  0  0  0  0  0  0  0
   -3.6923    0.8341   -3.5522 H   0  0  0  0  0  0  0  0  0  0  0  0
   -5.2422    0.8563   -4.3723 H   0  0  0  0  0  0  0  0  0  0  0  0
   -2.5658    0.2815   -5.7061 H   0  0  0  0  0  0  0  0  0  0  0  0
   -4.1374    0.1470   -6.4889 H   0  0  0  0  0  0  0  0  0  0  0  0
   -1.8786    2.0083   -7.4345 H   0  0  0  0  0  0  0  0  0  0  0  0
   -3.4561    1.7486   -8.1854 H   0  0  0  0  0  0  0  0  0  0  0  0
   -2.9491    3.3815   -7.7413 H   0  0  0  0  0  0  0  0  0  0  0  0
   -1.7653    2.5302   -4.8769 H   0  0  0  0  0  0  0  0  0  0  0  0
   -2.6273    3.9939   -5.3775 H   0  0  0  0  0  0  0  0  0  0  0  0
   -3.2819    3.0006   -4.0840 H   0  0  0  0  0  0  0  0  0  0  0  0
   -5.3801    2.2521   -6.7121 H   0  0  0  0  0  0  0  0  0  0  0  0
   -1.9027   -0.5357   -3.7792 H   0  0  0  0  0  0  0  0  0  0  0  0
   -1.1694   -1.9993   -5.3866 H   0  0  0  0  0  0  0  0  0  0  0  0
   -2.5089   -3.0378   -4.9597 H   0  0  0  0  0  0  0  0  0  0  0  0
    0.3420   -3.4448   -4.4317 H   0  0  0  0  0  0  0  0  0  0  0  0
   -0.9609   -4.5882   -4.1622 H   0  0  0  0  0  0  0  0  0  0  0  0
   -1.3704   -3.8472   -1.9823 H   0  0  0  0  0  0  0  0  0  0  0  0
    0.4773   -1.0238   -3.7923 H   0  0  0  0  0  0  0  0  0  0  0  0
    0.0525    0.1275   -2.5269 H   0  0  0  0  0  0  0  0  0  0  0  0
    2.3872   -0.6752   -2.3191 H   0  0  0  0  0  0  0  0  0  0  0  0
    1.4429   -1.1315   -0.9044 H   0  0  0  0  0  0  0  0  0  0  0  0
    2.7857   -3.0583   -1.6562 H   0  0  0  0  0  0  0  0  0  0  0  0
    2.1188   -2.9115   -3.2823 H   0  0  0  0  0  0  0  0  0  0  0  0
    1.8758   -4.7520   -0.4962 H   0  0  0  0  0  0  0  0  0  0  0  0
   -1.0432   -5.5817   -1.0072 H   0  0  0  0  0  0  0  0  0  0  0  0
   -1.3879   -7.1971    1.9078 H   0  0  0  0  0  0  0  0  0  0  0  0
   -1.8367   -7.3698    0.2000 H   0  0  0  0  0  0  0  0  0  0  0  0
   -1.2308   -9.5275    1.3102 H   0  0  0  0  0  0  0  0  0  0  0  0
    1.2131   -9.9393    1.7535 H   0  0  0  0  0  0  0  0  0  0  0  0
    0.4902   -8.7528    2.8597 H   0  0  0  0  0  0  0  0  0  0  0  0
    2.6689   -7.9428    2.1587 H   0  0  0  0  0  0  0  0  0  0  0  0
    1.3976   -4.5127    1.9609 H   0  0  0  0  0  0  0  0  0  0  0  0
    2.7125   -5.6220    2.5978 H   0  0  0  0  0  0  0  0  0  0  0  0
    2.9337   -7.5869   -0.1749 H   0  0  0  0  0  0  0  0  0  0  0  0
    0.6820   -8.9748   -0.6358 H   0  0  0  0  0  0  0  0  0  0  0  0
   -0.5512   -1.6369   -0.2231 H   0  0  0  0  0  0  0  0  0  0  0  0
   -1.6298   -0.3858   -0.8441 H   0  0  0  0  0  0  0  0  0  0  0  0
   -2.2130   -2.0350   -0.6007 H   0  0  0  0  0  0  0  0  0  0  0  0
  1  2  1  0
  2  3  1  0
  3  4  1  0
  4  5  1  0
  5  6  1  0
  6  7  1  0
  6  8  1  0
  6  9  1  6
  2 10  1  0
 10 11  1  0
 11 12  1  0
 12 13  1  0
 14 13  1  1
 14 15  1  0
 15 16  1  0
 16 17  1  0
 17 18  1  0
 18 19  2  0
 19 20  1  0
 20 21  2  0
 21 22  1  0
 22 23  1  0
 23 24  1  0
 24 25  1  0
 25 26  1  0
 26 27  2  0
 25 28  1  0
 23 29  1  0
 14 30  1  0
 14 10  1  0
 18 13  1  0
 26 21  1  0
  1 31  1  1
  1 32  1  0
  1 33  1  0
  2 34  1  1
  3 35  1  6
  3 36  1  0
  4 37  1  1
  4 38  1  0
  5 39  1  1
  5 40  1  0
  7 41  1  1
  7 42  1  0
  7 43  1  0
  8 44  1  1
  8 45  1  0
  8 46  1  0
  9 47  1  0
 10 48  1  6
 11 49  1  6
 11 50  1  0
 12 51  1  6
 12 52  1  0
 13 53  1  1
 15 54  1  6
 15 55  1  0
 16 56  1  6
 16 57  1  0
 17 58  1  1
 17 59  1  0
 19 60  1  0
 20 61  1  0
 22 62  1  1
 22 63  1  0
 23 64  1  1
 24 65  1  1
 24 66  1  0
 25 67  1  1
 27 68  1  0
 27 69  1  0
 28 70  1  0
 29 71  1  0
 30 72  1  1
 30 73  1  0
 30 74  1  0
M  END
$$$$
