 energy: -92.466653730730 gnorm: 0.000047559654 xtb: 6.5.1 (9af7eec)
     RDKit          3D

 74 76  0  0  0  0  0  0  0  0999 V2000
   -3.7615   -2.6360   -2.0299 C   0  0  1  0  0  0  0  0  0  0  0  0
   -3.3549   -1.3852   -2.8093 C   0  0  2  0  0  0  0  0  0  0  0  0
   -4.3880   -1.1356   -3.9234 C   0  0  1  0  0  0  0  0  0  0  0  0
   -4.2622    0.2352   -4.6095 C   0  0  2  0  0  0  0  0  0  0  0  0
   -3.6875    0.1334   -6.0227 C   0  0  1  0  0  0  0  0  0  0  0  0
   -3.2810    1.4727   -6.6700 C   0  0  2  0  0  0  0  0  0  0  0  0
   -2.0556    2.0769   -5.9732 C   0  0  1  0  0  0  0  0  0  0  0  0
   -4.4355    2.4733   -6.6788 C   0  0  1  0  0  0  0  0  0  0  0  0
   -2.9731    1.2356   -8.0395 O   0  0  0  0  0  0  0  0  0  0  0  0
   -1.9230   -1.4088   -3.3827 C   0  0  2  0  0  0  0  0  0  0  0  0
   -1.6162   -2.6611   -4.2288 C   0  0  2  0  0  0  0  0  0  0  0  0
   -0.5795   -3.5001   -3.4640 C   0  0  2  0  0  0  0  0  0  0  0  0
   -0.3807   -2.8064   -2.1062 C   0  0  2  0  0  0  0  0  0  0  0  0
   -0.7469   -1.3319   -2.3715 C   0  0  1  0  0  0  0  0  0  0  0  0
    0.4215   -0.6232   -3.0833 C   0  0  1  0  0  0  0  0  0  0  0  0
    1.7606   -0.8015   -2.3780 C   0  0  1  0  0  0  0  0  0  0  0  0
    2.0943   -2.2873   -2.2361 C   0  0  2  0  0  0  0  0  0  0  0  0
    0.9856   -2.9845   -1.5098 C   0  0  0  0  0  0  0  0  0  0  0  0
    1.1327   -3.6984   -0.3840 C   0  0  0  0  0  0  0  0  0  0  0  0
    2.3502   -3.9379    0.3450 C   0  0  0  0  0  0  0  0  0  0  0  0
    2.4598   -4.7129    1.4355 C   0  0  0  0  0  0  0  0  0  0  0  0
    3.7436   -4.8383    2.2036 C   0  0  1  0  0  0  0  0  0  0  0  0
    3.5519   -4.4439    3.6835 C   0  0  2  0  0  0  0  0  0  0  0  0
    2.4081   -5.2587    4.2998 C   0  0  2  0  0  0  0  0  0  0  0  0
    1.1138   -5.1210    3.4927 C   0  0  2  0  0  0  0  0  0  0  0  0
    1.3498   -5.4633    2.0380 C   0  0  0  0  0  0  0  0  0  0  0  0
    0.6062   -6.3526    1.3932 C   0  0  0  0  0  0  0  0  0  0  0  0
    0.6581   -3.7760    3.6134 O   0  0  0  0  0  0  0  0  0  0  0  0
    3.3550   -3.0629    3.8322 O   0  0  0  0  0  0  0  0  0  0  0  0
   -1.0652   -0.5964   -1.0725 C   0  0  1  0  0  0  0  0  0  0  0  0
   -3.1418   -2.7785   -1.1500 H   0  0  0  0  0  0  0  0  0  0  0  0
   -4.7927   -2.5384   -1.6946 H   0  0  0  0  0  0  0  0  0  0  0  0
   -3.6935   -3.5296   -2.6440 H   0  0  0  0  0  0  0  0  0  0  0  0
   -3.4202   -0.5318   -2.1266 H   0  0  0  0  0  0  0  0  0  0  0  0
   -4.3198   -1.9256   -4.6726 H   0  0  0  0  0  0  0  0  0  0  0  0
   -5.3788   -1.2130   -3.4713 H   0  0  0  0  0  0  0  0  0  0  0  0
   -3.6376    0.8866   -3.9969 H   0  0  0  0  0  0  0  0  0  0  0  0
   -5.2474    0.6983   -4.6695 H   0  0  0  0  0  0  0  0  0  0  0  0
   -2.8097   -0.5186   -6.0144 H   0  0  0  0  0  0  0  0  0  0  0  0
   -4.4311   -0.3338   -6.6736 H   0  0  0  0  0  0  0  0  0  0  0  0
   -2.2906    2.3717   -4.9548 H   0  0  0  0  0  0  0  0  0  0  0  0
   -1.2356    1.3599   -5.9488 H   0  0  0  0  0  0  0  0  0  0  0  0
   -1.7267    2.9575   -6.5199 H   0  0  0  0  0  0  0  0  0  0  0  0
   -4.6703    2.8033   -5.6721 H   0  0  0  0  0  0  0  0  0  0  0  0
   -4.1540    3.3335   -7.2798 H   0  0  0  0  0  0  0  0  0  0  0  0
   -5.3145    2.0178   -7.1262 H   0  0  0  0  0  0  0  0  0  0  0  0
   -2.2340    0.6196   -8.0876 H   0  0  0  0  0  0  0  0  0  0  0  0
   -1.8565   -0.5175   -4.0104 H   0  0  0  0  0  0  0  0  0  0  0  0
   -1.2196   -2.3741   -5.2042 H   0  0  0  0  0  0  0  0  0  0  0  0
   -2.5195   -3.2377   -4.4163 H   0  0  0  0  0  0  0  0  0  0  0  0
    0.3595   -3.5395   -4.0146 H   0  0  0  0  0  0  0  0  0  0  0  0
   -0.9144   -4.5276   -3.3232 H   0  0  0  0  0  0  0  0  0  0  0  0
   -1.1109   -3.2186   -1.4057 H   0  0  0  0  0  0  0  0  0  0  0  0
    0.5154   -1.0189   -4.0962 H   0  0  0  0  0  0  0  0  0  0  0  0
    0.1917    0.4425   -3.1645 H   0  0  0  0  0  0  0  0  0  0  0  0
    2.5432   -0.3030   -2.9549 H   0  0  0  0  0  0  0  0  0  0  0  0
    1.7378   -0.3405   -1.3893 H   0  0  0  0  0  0  0  0  0  0  0  0
    3.0451   -2.4052   -1.7193 H   0  0  0  0  0  0  0  0  0  0  0  0
    2.2085   -2.7209   -3.2340 H   0  0  0  0  0  0  0  0  0  0  0  0
    0.2459   -4.1499    0.0456 H   0  0  0  0  0  0  0  0  0  0  0  0
    3.2398   -3.4220    0.0114 H   0  0  0  0  0  0  0  0  0  0  0  0
    4.0887   -5.8760    2.1698 H   0  0  0  0  0  0  0  0  0  0  0  0
    4.5127   -4.2007    1.7658 H   0  0  0  0  0  0  0  0  0  0  0  0
    4.4825   -4.6646    4.2228 H   0  0  0  0  0  0  0  0  0  0  0  0
    2.2251   -4.9031    5.3153 H   0  0  0  0  0  0  0  0  0  0  0  0
    2.6855   -6.3130    4.3384 H   0  0  0  0  0  0  0  0  0  0  0  0
    0.3511   -5.7969    3.9139 H   0  0  0  0  0  0  0  0  0  0  0  0
    0.7889   -6.5950    0.3605 H   0  0  0  0  0  0  0  0  0  0  0  0
   -0.1932   -6.8854    1.8828 H   0  0  0  0  0  0  0  0  0  0  0  0
   -0.0713   -3.6401    2.9997 H   0  0  0  0  0  0  0  0  0  0  0  0
    2.4207   -2.8854    3.6444 H   0  0  0  0  0  0  0  0  0  0  0  0
   -0.1932   -0.5982   -0.4230 H   0  0  0  0  0  0  0  0  0  0  0  0
   -1.3413    0.4370   -1.2733 H   0  0  0  0  0  0  0  0  0  0  0  0
   -1.8761   -1.0729   -0.5298 H   0  0  0  0  0  0  0  0  0  0  0  0
  1  2  1  0
  2  3  1  0
  3  4  1  0
  4  5  1  0
  5  6  1  0
  6  7  1  0
  6  8  1  0
  6  9  1  6
  2 10  1  0
 10 11  1  0
 11 12  1  0
 12 13  1  0
 14 13  1  1
 14 15  1  0
 15 16  1  0
 16 17  1  0
 17 18  1  0
 18 19  2  0
 19 20  1  0
 20 21  2  0
 21 22  1  0
 22 23  1  0
 23 24  1  0
 24 25  1  0
 25 26  1  0
 26 27  2  0
 25 28  1  0
 23 29  1  0
 14 30  1  0
 14 10  1  0
 18 13  1  0
 26 21  1  0
  1 31  1  1
  1 32  1  0
  1 33  1  0
  2 34  1  1
  3 35  1  6
  3 36  1  0
  4 37  1  1
  4 38  1  0
  5 39  1  1
  5 40  1  0
  7 41  1  1
  7 42  1  0
  7 43  1  0
  8 44  1  1
  8 45  1  0
  8 46  1  0
  9 47  1  0
 10 48  1  6
 11 49  1  6
 11 50  1  0
 12 51  1  6
 12 52  1  0
 13 53  1  1
 15 54  1  6
 15 55  1  0
 16 56  1  6
 16 57  1  0
 17 58  1  1
 17 59  1  0
 19 60  1  0
 20 61  1  0
 22 62  1  1
 22 63  1  0
 23 64  1  1
 24 65  1  1
 24 66  1  0
 25 67  1  1
 27 68  1  0
 27 69  1  0
 28 70  1  0
 29 71  1  0
 30 72  1  1
 30 73  1  0
 30 74  1  0
M  END
$$$$
