 energy: -92.465618380091 gnorm: 0.000024992411 xtb: 6.5.1 (9af7eec)
     RDKit          3D

 74 76  0  0  0  0  0  0  0  0999 V2000
   -3.8501   -3.4036   -3.0576 C   0  0  1  0  0  0  0  0  0  0  0  0
   -3.4920   -1.9611   -3.4169 C   0  0  2  0  0  0  0  0  0  0  0  0
   -4.3246   -1.5331   -4.6398 C   0  0  1  0  0  0  0  0  0  0  0  0
   -4.2614   -0.0301   -4.9591 C   0  0  2  0  0  0  0  0  0  0  0  0
   -3.4196    0.2699   -6.1997 C   0  0  1  0  0  0  0  0  0  0  0  0
   -3.0912    1.7582   -6.4338 C   0  0  2  0  0  0  0  0  0  0  0  0
   -2.1191    2.2861   -5.3714 C   0  0  1  0  0  0  0  0  0  0  0  0
   -4.3526    2.6190   -6.4760 C   0  0  1  0  0  0  0  0  0  0  0  0
   -2.4976    1.8910   -7.7210 O   0  0  0  0  0  0  0  0  0  0  0  0
   -1.9898   -1.7006   -3.6531 C   0  0  2  0  0  0  0  0  0  0  0  0
   -1.3537   -2.6516   -4.6869 C   0  0  2  0  0  0  0  0  0  0  0  0
   -0.3862   -3.5798   -3.9350 C   0  0  2  0  0  0  0  0  0  0  0  0
   -0.5429   -3.2458   -2.4418 C   0  0  2  0  0  0  0  0  0  0  0  0
   -1.0473   -1.7878   -2.4215 C   0  0  1  0  0  0  0  0  0  0  0  0
    0.1222   -0.8169   -2.6698 C   0  0  1  0  0  0  0  0  0  0  0  0
    1.3102   -1.0556   -1.7458 C   0  0  1  0  0  0  0  0  0  0  0  0
    1.8138   -2.4902   -1.8994 C   0  0  2  0  0  0  0  0  0  0  0  0
    0.7020   -3.4628   -1.6363 C   0  0  0  0  0  0  0  0  0  0  0  0
    0.8570   -4.4317   -0.7197 C   0  0  0  0  0  0  0  0  0  0  0  0
   -0.0963   -5.4438   -0.3576 C   0  0  0  0  0  0  0  0  0  0  0  0
    0.0608   -6.4036    0.5729 C   0  0  0  0  0  0  0  0  0  0  0  0
    1.2750   -6.5957    1.4345 C   0  0  1  0  0  0  0  0  0  0  0  0
    0.9199   -6.7524    2.9267 C   0  0  2  0  0  0  0  0  0  0  0  0
   -0.1187   -7.8638    3.1085 C   0  0  2  0  0  0  0  0  0  0  0  0
   -1.3677   -7.6104    2.2630 C   0  0  2  0  0  0  0  0  0  0  0  0
   -1.0163   -7.3725    0.8108 C   0  0  0  0  0  0  0  0  0  0  0  0
   -1.6922   -7.9695   -0.1655 C   0  0  0  0  0  0  0  0  0  0  0  0
   -2.0363   -6.4669    2.7924 O   0  0  0  0  0  0  0  0  0  0  0  0
    0.5024   -5.5385    3.4938 O   0  0  0  0  0  0  0  0  0  0  0  0
   -1.7057   -1.4497   -1.0864 C   0  0  1  0  0  0  0  0  0  0  0  0
   -3.4242   -3.6961   -2.1026 H   0  0  0  0  0  0  0  0  0  0  0  0
   -4.9314   -3.5032   -2.9784 H   0  0  0  0  0  0  0  0  0  0  0  0
   -3.5053   -4.1017   -3.8152 H   0  0  0  0  0  0  0  0  0  0  0  0
   -3.8083   -1.3219   -2.5861 H   0  0  0  0  0  0  0  0  0  0  0  0
   -4.0142   -2.1044   -5.5157 H   0  0  0  0  0  0  0  0  0  0  0  0
   -5.3624   -1.8053   -4.4365 H   0  0  0  0  0  0  0  0  0  0  0  0
   -3.8621    0.5038   -4.0959 H   0  0  0  0  0  0  0  0  0  0  0  0
   -5.2719    0.3432   -5.1286 H   0  0  0  0  0  0  0  0  0  0  0  0
   -2.4762   -0.2798   -6.1428 H   0  0  0  0  0  0  0  0  0  0  0  0
   -3.9520   -0.0918   -7.0832 H   0  0  0  0  0  0  0  0  0  0  0  0
   -2.5834    2.3013   -4.3899 H   0  0  0  0  0  0  0  0  0  0  0  0
   -1.2257    1.6640   -5.3258 H   0  0  0  0  0  0  0  0  0  0  0  0
   -1.8200    3.3000   -5.6272 H   0  0  0  0  0  0  0  0  0  0  0  0
   -4.8195    2.6709   -5.4978 H   0  0  0  0  0  0  0  0  0  0  0  0
   -4.0863    3.6220   -6.7978 H   0  0  0  0  0  0  0  0  0  0  0  0
   -5.0566    2.2064   -7.1932 H   0  0  0  0  0  0  0  0  0  0  0  0
   -1.6838    1.3756   -7.7402 H   0  0  0  0  0  0  0  0  0  0  0  0
   -1.9358   -0.6730   -4.0190 H   0  0  0  0  0  0  0  0  0  0  0  0
   -0.8124   -2.0822   -5.4444 H   0  0  0  0  0  0  0  0  0  0  0  0
   -2.1143   -3.2256   -5.2122 H   0  0  0  0  0  0  0  0  0  0  0  0
    0.6388   -3.4070   -4.2608 H   0  0  0  0  0  0  0  0  0  0  0  0
   -0.6088   -4.6312   -4.1165 H   0  0  0  0  0  0  0  0  0  0  0  0
   -1.3389   -3.8705   -2.0396 H   0  0  0  0  0  0  0  0  0  0  0  0
    0.4653   -0.9252   -3.7003 H   0  0  0  0  0  0  0  0  0  0  0  0
   -0.2366    0.2084   -2.5464 H   0  0  0  0  0  0  0  0  0  0  0  0
    2.1112   -0.3553   -1.9943 H   0  0  0  0  0  0  0  0  0  0  0  0
    1.0300   -0.8786   -0.7066 H   0  0  0  0  0  0  0  0  0  0  0  0
    2.6462   -2.6724   -1.2173 H   0  0  0  0  0  0  0  0  0  0  0  0
    2.1875   -2.6231   -2.9193 H   0  0  0  0  0  0  0  0  0  0  0  0
    1.8058   -4.4684   -0.2011 H   0  0  0  0  0  0  0  0  0  0  0  0
   -1.0417   -5.4325   -0.8835 H   0  0  0  0  0  0  0  0  0  0  0  0
    1.7942   -7.5038    1.1118 H   0  0  0  0  0  0  0  0  0  0  0  0
    1.9608   -5.7562    1.3383 H   0  0  0  0  0  0  0  0  0  0  0  0
    1.8360   -7.0249    3.4678 H   0  0  0  0  0  0  0  0  0  0  0  0
   -0.4122   -7.9113    4.1587 H   0  0  0  0  0  0  0  0  0  0  0  0
    0.3130   -8.8222    2.8177 H   0  0  0  0  0  0  0  0  0  0  0  0
   -2.0383   -8.4819    2.3412 H   0  0  0  0  0  0  0  0  0  0  0  0
   -1.4515   -7.8039   -1.2013 H   0  0  0  0  0  0  0  0  0  0  0  0
   -2.4901   -8.6651    0.0381 H   0  0  0  0  0  0  0  0  0  0  0  0
   -2.7793   -6.2516    2.2191 H   0  0  0  0  0  0  0  0  0  0  0  0
   -0.4358   -5.4286    3.2774 H   0  0  0  0  0  0  0  0  0  0  0  0
   -0.9832   -1.5525   -0.2805 H   0  0  0  0  0  0  0  0  0  0  0  0
   -2.0753   -0.4259   -1.0881 H   0  0  0  0  0  0  0  0  0  0  0  0
   -2.5333   -2.1167   -0.8652 H   0  0  0  0  0  0  0  0  0  0  0  0
  1  2  1  0
  2  3  1  0
  3  4  1  0
  4  5  1  0
  5  6  1  0
  6  7  1  0
  6  8  1  0
  6  9  1  6
  2 10  1  0
 10 11  1  0
 11 12  1  0
 12 13  1  0
 14 13  1  1
 14 15  1  0
 15 16  1  0
 16 17  1  0
 17 18  1  0
 18 19  2  0
 19 20  1  0
 20 21  2  0
 21 22  1  0
 22 23  1  0
 23 24  1  0
 24 25  1  0
 25 26  1  0
 26 27  2  0
 25 28  1  0
 23 29  1  0
 14 30  1  0
 14 10  1  0
 18 13  1  0
 26 21  1  0
  1 31  1  1
  1 32  1  0
  1 33  1  0
  2 34  1  1
  3 35  1  6
  3 36  1  0
  4 37  1  1
  4 38  1  0
  5 39  1  1
  5 40  1  0
  7 41  1  1
  7 42  1  0
  7 43  1  0
  8 44  1  1
  8 45  1  0
  8 46  1  0
  9 47  1  0
 10 48  1  6
 11 49  1  6
 11 50  1  0
 12 51  1  6
 12 52  1  0
 13 53  1  1
 15 54  1  6
 15 55  1  0
 16 56  1  6
 16 57  1  0
 17 58  1  1
 17 59  1  0
 19 60  1  0
 20 61  1  0
 22 62  1  6
 22 63  1  0
 23 64  1  1
 24 65  1  1
 24 66  1  0
 25 67  1  6
 27 68  1  0
 27 69  1  0
 28 70  1  0
 29 71  1  0
 30 72  1  1
 30 73  1  0
 30 74  1  0
M  END
$$$$
