 energy: -92.465810510284 gnorm: 0.000049196472 xtb: 6.5.1 (9af7eec)
     RDKit          3D

 74 76  0  0  0  0  0  0  0  0999 V2000
   -3.3880   -1.1044    3.0485 C   0  0  1  0  0  0  0  0  0  0  0  0
   -3.2288   -0.0248    1.9765 C   0  0  2  0  0  0  0  0  0  0  0  0
   -4.4836   -0.0550    1.0852 C   0  0  1  0  0  0  0  0  0  0  0  0
   -4.6639    1.1193    0.1206 C   0  0  2  0  0  0  0  0  0  0  0  0
   -4.9239    2.4532    0.8179 C   0  0  1  0  0  0  0  0  0  0  0  0
   -4.8158    3.6605   -0.1370 C   0  0  2  0  0  0  0  0  0  0  0  0
   -4.9921    4.9554    0.6682 C   0  0  1  0  0  0  0  0  0  0  0  0
   -5.8621    3.5969   -1.2495 C   0  0  1  0  0  0  0  0  0  0  0  0
   -3.5523    3.6637   -0.7839 O   0  0  0  0  0  0  0  0  0  0  0  0
   -1.9510   -0.1639    1.1313 C   0  0  2  0  0  0  0  0  0  0  0  0
   -1.4352   -1.5787    0.8719 C   0  0  2  0  0  0  0  0  0  0  0  0
   -0.1505   -1.2888    0.1050 C   0  0  2  0  0  0  0  0  0  0  0  0
    0.4920   -0.1431    0.8978 C   0  0  2  0  0  0  0  0  0  0  0  0
   -0.6874    0.6091    1.6009 C   0  0  1  0  0  0  0  0  0  0  0  0
   -0.7541    2.0598    1.1083 C   0  0  1  0  0  0  0  0  0  0  0  0
    0.5417    2.8388    1.3366 C   0  0  1  0  0  0  0  0  0  0  0  0
    1.7737    1.9779    0.9995 C   0  0  2  0  0  0  0  0  0  0  0  0
    1.3777    0.8107    0.1417 C   0  0  0  0  0  0  0  0  0  0  0  0
    1.7497    0.6333   -1.1315 C   0  0  0  0  0  0  0  0  0  0  0  0
    2.6017    1.4962   -1.9094 C   0  0  0  0  0  0  0  0  0  0  0  0
    2.8163    1.3800   -3.2292 C   0  0  0  0  0  0  0  0  0  0  0  0
    3.7806    2.2661   -3.9642 C   0  0  1  0  0  0  0  0  0  0  0  0
    4.8283    1.4426   -4.7414 C   0  0  2  0  0  0  0  0  0  0  0  0
    4.1272    0.4325   -5.6581 C   0  0  2  0  0  0  0  0  0  0  0  0
    3.1571   -0.4614   -4.8804 C   0  0  2  0  0  0  0  0  0  0  0  0
    2.1772    0.3729   -4.0857 C   0  0  0  0  0  0  0  0  0  0  0  0
    0.8661    0.1842   -4.1671 C   0  0  0  0  0  0  0  0  0  0  0  0
    3.9210   -1.2890   -4.0064 O   0  0  0  0  0  0  0  0  0  0  0  0
    5.7482    0.8243   -3.8810 O   0  0  0  0  0  0  0  0  0  0  0  0
   -0.4935    0.5770    3.1171 C   0  0  1  0  0  0  0  0  0  0  0  0
   -3.5355   -2.0793    2.5904 H   0  0  0  0  0  0  0  0  0  0  0  0
   -2.5237   -1.1552    3.7022 H   0  0  0  0  0  0  0  0  0  0  0  0
   -4.2595   -0.8861    3.6630 H   0  0  0  0  0  0  0  0  0  0  0  0
   -3.1972    0.9444    2.4828 H   0  0  0  0  0  0  0  0  0  0  0  0
   -4.4662   -0.9793    0.5026 H   0  0  0  0  0  0  0  0  0  0  0  0
   -5.3620   -0.0968    1.7342 H   0  0  0  0  0  0  0  0  0  0  0  0
   -5.5102    0.8881   -0.5288 H   0  0  0  0  0  0  0  0  0  0  0  0
   -3.7871    1.2314   -0.5191 H   0  0  0  0  0  0  0  0  0  0  0  0
   -5.9132    2.4498    1.2780 H   0  0  0  0  0  0  0  0  0  0  0  0
   -4.1900    2.5931    1.6156 H   0  0  0  0  0  0  0  0  0  0  0  0
   -5.9871    5.0005    1.1019 H   0  0  0  0  0  0  0  0  0  0  0  0
   -4.2602    5.0103    1.4732 H   0  0  0  0  0  0  0  0  0  0  0  0
   -4.8533    5.8156    0.0176 H   0  0  0  0  0  0  0  0  0  0  0  0
   -6.8576    3.4863   -0.8298 H   0  0  0  0  0  0  0  0  0  0  0  0
   -5.8214    4.5088   -1.8391 H   0  0  0  0  0  0  0  0  0  0  0  0
   -5.6507    2.7601   -1.9076 H   0  0  0  0  0  0  0  0  0  0  0  0
   -2.8639    3.7354   -0.1129 H   0  0  0  0  0  0  0  0  0  0  0  0
   -2.1863    0.2446    0.1438 H   0  0  0  0  0  0  0  0  0  0  0  0
   -2.1376   -2.1806    0.2967 H   0  0  0  0  0  0  0  0  0  0  0  0
   -1.2102   -2.0989    1.8025 H   0  0  0  0  0  0  0  0  0  0  0  0
   -0.4106   -0.9614   -0.9024 H   0  0  0  0  0  0  0  0  0  0  0  0
    0.5087   -2.1530    0.0295 H   0  0  0  0  0  0  0  0  0  0  0  0
    1.1144   -0.5903    1.6828 H   0  0  0  0  0  0  0  0  0  0  0  0
   -0.9614    2.0476    0.0353 H   0  0  0  0  0  0  0  0  0  0  0  0
   -1.5802    2.5734    1.6064 H   0  0  0  0  0  0  0  0  0  0  0  0
    0.5274    3.7239    0.6977 H   0  0  0  0  0  0  0  0  0  0  0  0
    0.6017    3.1854    2.3694 H   0  0  0  0  0  0  0  0  0  0  0  0
    2.2059    1.5826    1.9232 H   0  0  0  0  0  0  0  0  0  0  0  0
    2.5348    2.5911    0.5230 H   0  0  0  0  0  0  0  0  0  0  0  0
    1.3957   -0.2419   -1.6580 H   0  0  0  0  0  0  0  0  0  0  0  0
    3.1313    2.2801   -1.3861 H   0  0  0  0  0  0  0  0  0  0  0  0
    3.2312    2.8820   -4.6827 H   0  0  0  0  0  0  0  0  0  0  0  0
    4.2982    2.9250   -3.2658 H   0  0  0  0  0  0  0  0  0  0  0  0
    5.4230    2.1324   -5.3547 H   0  0  0  0  0  0  0  0  0  0  0  0
    4.8799   -0.1995   -6.1327 H   0  0  0  0  0  0  0  0  0  0  0  0
    3.5703    0.9621   -6.4321 H   0  0  0  0  0  0  0  0  0  0  0  0
    2.6080   -1.1019   -5.5902 H   0  0  0  0  0  0  0  0  0  0  0  0
    0.1754    0.7916   -3.6081 H   0  0  0  0  0  0  0  0  0  0  0  0
    0.4394   -0.5631   -4.8166 H   0  0  0  0  0  0  0  0  0  0  0  0
    3.3187   -1.7564   -3.4183 H   0  0  0  0  0  0  0  0  0  0  0  0
    5.3305    0.0146   -3.5502 H   0  0  0  0  0  0  0  0  0  0  0  0
    0.4387    1.0639    3.3912 H   0  0  0  0  0  0  0  0  0  0  0  0
   -1.3022    1.0914    3.6311 H   0  0  0  0  0  0  0  0  0  0  0  0
   -0.4497   -0.4480    3.4767 H   0  0  0  0  0  0  0  0  0  0  0  0
  1  2  1  0
  2  3  1  0
  3  4  1  0
  4  5  1  0
  5  6  1  0
  6  7  1  0
  6  8  1  0
  6  9  1  6
  2 10  1  0
 10 11  1  0
 11 12  1  0
 12 13  1  0
 14 13  1  6
 14 15  1  0
 15 16  1  0
 16 17  1  0
 17 18  1  0
 18 19  2  0
 19 20  1  0
 20 21  2  0
 21 22  1  0
 22 23  1  0
 23 24  1  0
 24 25  1  0
 25 26  1  0
 26 27  2  0
 25 28  1  0
 23 29  1  0
 14 30  1  0
 14 10  1  0
 18 13  1  0
 26 21  1  0
  1 31  1  6
  1 32  1  0
  1 33  1  0
  2 34  1  1
  3 35  1  6
  3 36  1  0
  4 37  1  6
  4 38  1  0
  5 39  1  1
  5 40  1  0
  7 41  1  1
  7 42  1  0
  7 43  1  0
  8 44  1  1
  8 45  1  0
  8 46  1  0
  9 47  1  0
 10 48  1  6
 11 49  1  6
 11 50  1  0
 12 51  1  6
 12 52  1  0
 13 53  1  1
 15 54  1  6
 15 55  1  0
 16 56  1  6
 16 57  1  0
 17 58  1  1
 17 59  1  0
 19 60  1  0
 20 61  1  0
 22 62  1  6
 22 63  1  0
 23 64  1  6
 24 65  1  6
 24 66  1  0
 25 67  1  6
 27 68  1  0
 27 69  1  0
 28 70  1  0
 29 71  1  0
 30 72  1  6
 30 73  1  0
 30 74  1  0
M  END
$$$$
