-45.78893829
     RDKit          3D

 29 28  0  0  1  0  0  0  0  0999 V2000
    0.8563    0.4000    0.3386 N   0  0  0  0  0  0  0  0  0  0  0  0
   -0.2401   -0.4643    0.7228 C   0  0  2  0  0  0  0  0  0  0  0  0
   -0.2938   -1.6655   -0.2345 C   0  0  0  0  0  0  0  0  0  0  0  0
   -0.6205   -1.5586   -1.4072 O   0  0  0  0  0  0  0  0  0  0  0  0
   -1.5618    0.3187    0.7586 C   0  0  1  0  0  0  0  0  0  0  0  0
   -2.0982    0.7864   -0.6010 C   0  0  2  0  0  0  0  0  0  0  0  0
   -1.5448    2.1053   -1.0872 C   0  0  0  0  0  0  0  0  0  0  0  0
   -0.4782    2.5822   -0.7455 O   0  0  0  0  0  0  0  0  0  0  0  0
    0.6103    1.2352   -0.1883 H   0  0  0  0  0  0  0  0  0  0  0  0
   -0.0290   -0.8270    1.7341 H   0  0  0  0  0  0  0  0  0  0  0  0
   -2.3122   -0.3285    1.2173 H   0  0  0  0  0  0  0  0  0  0  0  0
   -1.4166    1.1836    1.4105 H   0  0  0  0  0  0  0  0  0  0  0  0
   -3.1860    0.8583   -0.5562 H   0  0  0  0  0  0  0  0  0  0  0  0
   -1.8373    0.0337   -1.3527 H   0  0  0  0  0  0  0  0  0  0  0  0
    2.1116    0.2109    0.7773 C   0  0  0  0  0  0  0  0  0  0  0  0
    2.4342   -0.7227    1.4937 O   0  0  0  0  0  0  0  0  0  0  0  0
    0.0382   -2.8671    0.2637 N   0  0  0  0  0  0  0  0  0  0  0  0
    0.0190   -3.6091   -0.4228 H   0  0  0  0  0  0  0  0  0  0  0  0
    0.5576   -3.1992    1.5726 C   0  0  1  0  0  0  0  0  0  0  0  0
   -0.2267   -3.1404    2.3320 H   0  0  0  0  0  0  0  0  0  0  0  0
    0.9350   -4.2181    1.5467 H   0  0  0  0  0  0  0  0  0  0  0  0
    1.3778   -2.5280    1.8387 H   0  0  0  0  0  0  0  0  0  0  0  0
    3.0865    1.2572    0.2851 C   0  0  2  0  0  0  0  0  0  0  0  0
    2.6639    2.2524    0.3924 H   0  0  0  0  0  0  0  0  0  0  0  0
    3.2955    1.0806   -0.7681 H   0  0  0  0  0  0  0  0  0  0  0  0
    4.0132    1.1824    0.8466 H   0  0  0  0  0  0  0  0  0  0  0  0
   -2.3421    2.7457   -1.9693 N   0  0  0  0  0  0  0  0  0  0  0  0
   -2.0070    3.5945   -2.3949 H   0  0  0  0  0  0  0  0  0  0  0  0
   -3.1863    2.3333   -2.3228 H   0  0  0  0  0  0  0  0  0  0  0  0
  1  2  1  0
  1 15  1  0
  2  5  1  0
  2 10  1  1
  3 17  1  0
  3  2  1  0
  4  3  2  0
  5 11  1  1
  5 12  1  0
  6 13  1  1
  6  5  1  0
  7  8  2  0
  7  6  1  0
  9  1  1  0
 14  6  1  0
 15 16  2  0
 17 19  1  0
 18 17  1  0
 19 22  1  1
 19 20  1  0
 21 19  1  0
 23 24  1  6
 23 15  1  0
 23 26  1  0
 25 23  1  0
 27  7  1  0
 28 27  1  0
 29 27  1  0
M  END
$$$$
