-45.78777848
     RDKit          3D

 29 28  0  0  1  0  0  0  0  0999 V2000
    1.8022    0.1169   -0.1287 N   0  0  0  0  0  0  0  0  0  0  0  0
    0.4199    0.1220    0.3117 C   0  0  2  0  0  0  0  0  0  0  0  0
   -0.2134   -1.2251   -0.0721 C   0  0  0  0  0  0  0  0  0  0  0  0
   -0.7057   -1.4044   -1.1776 O   0  0  0  0  0  0  0  0  0  0  0  0
   -0.3405    1.2652   -0.3664 C   0  0  1  0  0  0  0  0  0  0  0  0
   -1.8025    1.3381    0.0998 C   0  0  2  0  0  0  0  0  0  0  0  0
   -2.7659    1.5393   -1.0675 C   0  0  0  0  0  0  0  0  0  0  0  0
   -3.4982    2.4986   -1.1681 O   0  0  0  0  0  0  0  0  0  0  0  0
    1.9540    0.1991   -1.1220 H   0  0  0  0  0  0  0  0  0  0  0  0
    0.4274    0.2549    1.3958 H   0  0  0  0  0  0  0  0  0  0  0  0
    0.1701    2.2047   -0.1532 H   0  0  0  0  0  0  0  0  0  0  0  0
   -0.3029    1.1006   -1.4455 H   0  0  0  0  0  0  0  0  0  0  0  0
   -1.9467    2.1547    0.8060 H   0  0  0  0  0  0  0  0  0  0  0  0
   -2.0853    0.4060    0.5939 H   0  0  0  0  0  0  0  0  0  0  0  0
    2.8578   -0.0247    0.7041 C   0  0  0  0  0  0  0  0  0  0  0  0
    2.7268   -0.1907    1.9003 O   0  0  0  0  0  0  0  0  0  0  0  0
   -0.1732   -2.2158    0.8273 N   0  0  0  0  0  0  0  0  0  0  0  0
   -0.6104   -3.0737    0.5155 H   0  0  0  0  0  0  0  0  0  0  0  0
    0.3055   -2.1982    2.1917 C   0  0  1  0  0  0  0  0  0  0  0  0
    1.1963   -1.5784    2.2901 H   0  0  0  0  0  0  0  0  0  0  0  0
   -0.4660   -1.8254    2.8715 H   0  0  0  0  0  0  0  0  0  0  0  0
    0.5611   -3.2146    2.4829 H   0  0  0  0  0  0  0  0  0  0  0  0
    4.1968    0.0430    0.0067 C   0  0  2  0  0  0  0  0  0  0  0  0
    4.2763   -0.7560   -0.7273 H   0  0  0  0  0  0  0  0  0  0  0  0
    4.9885   -0.0650    0.7419 H   0  0  0  0  0  0  0  0  0  0  0  0
    4.3061    0.9981   -0.5020 H   0  0  0  0  0  0  0  0  0  0  0  0
   -2.7273    0.5363   -1.9650 N   0  0  0  0  0  0  0  0  0  0  0  0
   -3.3274    0.5792   -2.7710 H   0  0  0  0  0  0  0  0  0  0  0  0
   -2.1026   -0.2521   -1.8545 H   0  0  0  0  0  0  0  0  0  0  0  0
  1  2  1  0
  1 15  1  0
  2 10  1  1
  3  2  1  0
  3 17  1  0
  4  3  2  0
  5 11  1  6
  5  6  1  0
  5  2  1  0
  6 14  1  1
  6 13  1  0
  7  6  1  0
  8  7  2  0
  9  1  1  0
 12  5  1  0
 15 16  2  0
 17 19  1  0
 18 17  1  0
 19 20  1  6
 19 22  1  0
 19 21  1  0
 23 15  1  0
 23 25  1  1
 24 23  1  0
 26 23  1  0
 27 29  1  0
 27  7  1  0
 28 27  1  0
M  END
$$$$
