-45.78715467
     RDKit          3D

 29 28  0  0  1  0  0  0  0  0999 V2000
   -0.1872   -0.0233    1.2188 N   0  0  0  0  0  0  0  0  0  0  0  0
   -0.9776   -0.9099    0.3837 C   0  0  2  0  0  0  0  0  0  0  0  0
   -0.0875   -1.8264   -0.4730 C   0  0  0  0  0  0  0  0  0  0  0  0
   -0.1871   -1.8870   -1.6807 O   0  0  0  0  0  0  0  0  0  0  0  0
   -1.9857   -0.1303   -0.4766 C   0  0  1  0  0  0  0  0  0  0  0  0
   -1.3214    0.8414   -1.4504 C   0  0  2  0  0  0  0  0  0  0  0  0
   -0.7253    2.0493   -0.7570 C   0  0  0  0  0  0  0  0  0  0  0  0
   -1.1789    2.5453    0.2570 O   0  0  0  0  0  0  0  0  0  0  0  0
   -0.7272    0.5441    1.8570 H   0  0  0  0  0  0  0  0  0  0  0  0
   -1.5494   -1.5674    1.0556 H   0  0  0  0  0  0  0  0  0  0  0  0
   -2.5741   -0.8537   -1.0411 H   0  0  0  0  0  0  0  0  0  0  0  0
   -2.6500    0.4298    0.1862 H   0  0  0  0  0  0  0  0  0  0  0  0
   -2.0781    1.2163   -2.1445 H   0  0  0  0  0  0  0  0  0  0  0  0
   -0.5605    0.3157   -2.0247 H   0  0  0  0  0  0  0  0  0  0  0  0
    1.0277    0.4541    0.8579 C   0  0  0  0  0  0  0  0  0  0  0  0
    1.6660    0.0116   -0.0758 O   0  0  0  0  0  0  0  0  0  0  0  0
    0.6962   -2.7005    0.1970 N   0  0  0  0  0  0  0  0  0  0  0  0
    1.3123   -3.2205   -0.4135 H   0  0  0  0  0  0  0  0  0  0  0  0
    1.0514   -2.7115    1.5925 C   0  0  1  0  0  0  0  0  0  0  0  0
    0.1976   -2.4299    2.2054 H   0  0  0  0  0  0  0  0  0  0  0  0
    1.3577   -3.7212    1.8650 H   0  0  0  0  0  0  0  0  0  0  0  0
    1.8768   -2.0252    1.8048 H   0  0  0  0  0  0  0  0  0  0  0  0
    1.5329    1.5444    1.7773 C   0  0  2  0  0  0  0  0  0  0  0  0
    2.5270    1.8521    1.4664 H   0  0  0  0  0  0  0  0  0  0  0  0
    1.5702    1.1820    2.8022 H   0  0  0  0  0  0  0  0  0  0  0  0
    0.8534    2.3933    1.7328 H   0  0  0  0  0  0  0  0  0  0  0  0
    0.3370    2.5820   -1.3997 N   0  0  0  0  0  0  0  0  0  0  0  0
    0.8178    3.3612   -0.9801 H   0  0  0  0  0  0  0  0  0  0  0  0
    0.8108    2.0721   -2.1242 H   0  0  0  0  0  0  0  0  0  0  0  0
  1  9  1  0
  2 10  1  1
  2  1  1  0
  3 17  1  0
  3  2  1  0
  4  3  2  0
  5 12  1  1
  5  2  1  0
  6  7  1  0
  6  5  1  0
  7  8  2  0
 11  5  1  0
  6 13  1  6
 14  6  1  0
 15  1  1  0
 15 23  1  0
 16 15  2  0
 17 19  1  0
 18 17  1  0
 19 22  1  6
 19 21  1  0
 19 20  1  0
 23 25  1  1
 24 23  1  0
 26 23  1  0
 27 28  1  0
 27  7  1  0
 29 27  1  0
M  END
$$$$
