-45.78700000
     RDKit          3D

 29 28  0  0  1  0  0  0  0  0999 V2000
    1.0597   -0.0798   -0.0983 N   0  0  0  0  0  0  0  0  0  0  0  0
    0.0456   -0.8325    0.5963 C   0  0  2  0  0  0  0  0  0  0  0  0
   -0.2560   -2.0655   -0.2539 C   0  0  0  0  0  0  0  0  0  0  0  0
    0.0746   -2.1236   -1.4222 O   0  0  0  0  0  0  0  0  0  0  0  0
   -1.2297    0.0079    0.8269 C   0  0  1  0  0  0  0  0  0  0  0  0
   -1.6882    0.7253   -0.4454 C   0  0  2  0  0  0  0  0  0  0  0  0
   -0.7791    1.8729   -0.8651 C   0  0  0  0  0  0  0  0  0  0  0  0
   -0.2384    1.9306   -1.9483 O   0  0  0  0  0  0  0  0  0  0  0  0
    1.1559   -0.3045   -1.0814 H   0  0  0  0  0  0  0  0  0  0  0  0
    0.4506   -1.1277    1.5726 H   0  0  0  0  0  0  0  0  0  0  0  0
   -2.0303   -0.6427    1.1813 H   0  0  0  0  0  0  0  0  0  0  0  0
   -1.0067    0.7298    1.6142 H   0  0  0  0  0  0  0  0  0  0  0  0
   -2.6865    1.1385   -0.2832 H   0  0  0  0  0  0  0  0  0  0  0  0
   -1.7351    0.0201   -1.2768 H   0  0  0  0  0  0  0  0  0  0  0  0
    1.7143    0.9599    0.4570 C   0  0  0  0  0  0  0  0  0  0  0  0
    1.5176    1.3141    1.6054 O   0  0  0  0  0  0  0  0  0  0  0  0
   -0.9089   -3.0906    0.3281 N   0  0  0  0  0  0  0  0  0  0  0  0
   -1.1088   -3.8554   -0.3034 H   0  0  0  0  0  0  0  0  0  0  0  0
   -1.3745   -3.2535    1.6819 C   0  0  1  0  0  0  0  0  0  0  0  0
   -1.1820   -4.2762    2.0078 H   0  0  0  0  0  0  0  0  0  0  0  0
   -0.8550   -2.5745    2.3529 H   0  0  0  0  0  0  0  0  0  0  0  0
   -2.4502   -3.0663    1.7551 H   0  0  0  0  0  0  0  0  0  0  0  0
    2.6940    1.6226   -0.4811 C   0  0  2  0  0  0  0  0  0  0  0  0
    3.1868    2.4478    0.0248 H   0  0  0  0  0  0  0  0  0  0  0  0
    2.1577    1.9893   -1.3546 H   0  0  0  0  0  0  0  0  0  0  0  0
    3.4389    0.9023   -0.8103 H   0  0  0  0  0  0  0  0  0  0  0  0
   -0.6846    2.8774    0.0366 N   0  0  0  0  0  0  0  0  0  0  0  0
   -0.0182    3.6103   -0.1458 H   0  0  0  0  0  0  0  0  0  0  0  0
   -0.9773    2.7585    0.9902 H   0  0  0  0  0  0  0  0  0  0  0  0
  1 15  1  0
  1  2  1  0
  2  5  1  0
  2 10  1  1
  3 17  1  0
  3  2  1  0
  4  3  2  0
  5 11  1  1
  5 12  1  0
  6 13  1  1
  6  5  1  0
  7  6  1  0
  7 27  1  0
  8  7  2  0
  9  1  1  0
 14  6  1  0
 15 16  2  0
 17 19  1  0
 18 17  1  0
 19 22  1  6
 19 20  1  0
 19 21  1  0
 23 24  1  1
 23 15  1  0
 25 23  1  0
 26 23  1  0
 27 29  1  0
 28 27  1  0
M  END
$$$$
