-46.42367577
     RDKit          3D

 28 27  0  0  1  0  0  0  0  0999 V2000
    1.6020   -0.2358    0.3697 N   0  0  0  0  0  0  0  0  0  0  0  0
    1.2706   -0.7520    1.1796 H   0  0  0  0  0  0  0  0  0  0  0  0
    0.5894    0.5765   -0.2538 C   0  0  1  0  0  0  0  0  0  0  0  0
    1.0280    1.5200   -0.5926 H   0  0  0  0  0  0  0  0  0  0  0  0
   -0.0493   -0.1500   -1.4595 C   0  0  2  0  0  0  0  0  0  0  0  0
   -0.4760    0.8528    0.8171 C   0  0  0  0  0  0  0  0  0  0  0  0
    0.7369   -0.3832   -2.1785 H   0  0  0  0  0  0  0  0  0  0  0  0
   -0.7754    0.5075   -1.9385 H   0  0  0  0  0  0  0  0  0  0  0  0
   -0.7467   -1.4440   -1.0470 C   0  0  2  0  0  0  0  0  0  0  0  0
   -0.5915    0.1124    1.7767 O   0  0  0  0  0  0  0  0  0  0  0  0
   -0.1205   -2.0420   -0.3857 H   0  0  0  0  0  0  0  0  0  0  0  0
   -0.9662   -2.0447   -1.9336 H   0  0  0  0  0  0  0  0  0  0  0  0
   -2.0665   -1.1826   -0.3607 C   0  0  0  0  0  0  0  0  0  0  0  0
   -2.4232   -2.1939    0.4244 O   0  0  0  0  0  0  0  0  0  0  0  0
   -2.7494   -0.2033   -0.5228 O   0  0  0  0  0  0  0  0  0  0  0  0
    2.9279   -0.3030    0.1132 C   0  0  0  0  0  0  0  0  0  0  0  0
    3.4408    0.5707   -1.0141 C   0  0  2  0  0  0  0  0  0  0  0  0
    3.6522   -1.0293    0.7596 O   0  0  0  0  0  0  0  0  0  0  0  0
    4.4969    0.3613   -1.1567 H   0  0  0  0  0  0  0  0  0  0  0  0
    3.3234    1.6208   -0.7526 H   0  0  0  0  0  0  0  0  0  0  0  0
    2.9073    0.3745   -1.9401 H   0  0  0  0  0  0  0  0  0  0  0  0
   -1.2380    1.9514    0.6882 N   0  0  0  0  0  0  0  0  0  0  0  0
   -1.4201    2.8007   -0.4622 C   0  0  1  0  0  0  0  0  0  0  0  0
   -1.9727    2.0088    1.3818 H   0  0  0  0  0  0  0  0  0  0  0  0
   -2.1672    2.3800   -1.1407 H   0  0  0  0  0  0  0  0  0  0  0  0
   -1.7643    3.7768   -0.1231 H   0  0  0  0  0  0  0  0  0  0  0  0
   -0.4831    2.9322   -0.9987 H   0  0  0  0  0  0  0  0  0  0  0  0
   -3.2588   -2.0055    0.8798 H   0  0  0  0  0  0  0  0  0  0  0  0
  1  2  1  0
  3  4  1  6
  3  1  1  0
  3  6  1  0
  5  9  1  0
  5  3  1  0
  6 10  2  0
  5  7  1  6
  8  5  1  0
  9 11  1  1
  9 13  1  0
 12  9  1  0
 13 14  1  0
 14 28  1  0
 15 13  2  0
 16  1  1  0
 16 18  2  0
 17 20  1  1
 17 16  1  0
 19 17  1  0
 21 17  1  0
 22  6  1  0
 22 24  1  0
 23 26  1  1
 23 22  1  0
 25 23  1  0
 27 23  1  0
M  END
$$$$
