-46.41908428
     RDKit          3D

 28 27  0  0  1  0  0  0  0  0999 V2000
    0.4872   -0.1154    0.4901 N   0  0  0  0  0  0  0  0  0  0  0  0
    0.0659   -0.4799    1.3344 H   0  0  0  0  0  0  0  0  0  0  0  0
   -0.3557    0.6822   -0.3619 C   0  0  1  0  0  0  0  0  0  0  0  0
   -0.0149    0.5766   -1.3979 H   0  0  0  0  0  0  0  0  0  0  0  0
   -1.8042    0.1763   -0.2904 C   0  0  2  0  0  0  0  0  0  0  0  0
   -0.2993    2.1968   -0.0881 C   0  0  0  0  0  0  0  0  0  0  0  0
   -2.4718    0.9361   -0.6987 H   0  0  0  0  0  0  0  0  0  0  0  0
   -2.0813   -0.0017    0.7504 H   0  0  0  0  0  0  0  0  0  0  0  0
   -1.9742   -1.1195   -1.0959 C   0  0  2  0  0  0  0  0  0  0  0  0
   -0.3173    2.9754   -1.0213 O   0  0  0  0  0  0  0  0  0  0  0  0
   -1.9284   -0.9025   -2.1632 H   0  0  0  0  0  0  0  0  0  0  0  0
   -2.9378   -1.5713   -0.8587 H   0  0  0  0  0  0  0  0  0  0  0  0
   -0.8800   -2.1162   -0.7827 C   0  0  0  0  0  0  0  0  0  0  0  0
   -0.9978   -2.6361    0.4439 O   0  0  0  0  0  0  0  0  0  0  0  0
   -0.0007   -2.4221   -1.5410 O   0  0  0  0  0  0  0  0  0  0  0  0
    1.7622   -0.5404    0.2860 C   0  0  0  0  0  0  0  0  0  0  0  0
    2.4300   -0.0883   -0.9830 C   0  0  2  0  0  0  0  0  0  0  0  0
    2.2863   -1.2570    1.1151 O   0  0  0  0  0  0  0  0  0  0  0  0
    1.9822   -0.6238   -1.8195 H   0  0  0  0  0  0  0  0  0  0  0  0
    3.4854   -0.3393   -0.9332 H   0  0  0  0  0  0  0  0  0  0  0  0
    2.3097    0.9812   -1.1352 H   0  0  0  0  0  0  0  0  0  0  0  0
   -0.2580    2.6524    1.1788 N   0  0  0  0  0  0  0  0  0  0  0  0
   -0.2154    1.9387    2.4332 C   0  0  1  0  0  0  0  0  0  0  0  0
   -0.1870    3.6595    1.2309 H   0  0  0  0  0  0  0  0  0  0  0  0
   -1.0115    1.1956    2.4865 H   0  0  0  0  0  0  0  0  0  0  0  0
    0.7484    1.4467    2.5857 H   0  0  0  0  0  0  0  0  0  0  0  0
   -0.3682    2.6524    3.2399 H   0  0  0  0  0  0  0  0  0  0  0  0
   -0.2533   -3.2309    0.6320 H   0  0  0  0  0  0  0  0  0  0  0  0
  1  2  1  0
  3  4  1  6
  3  5  1  0
  3  6  1  0
  3  1  1  0
  5  8  1  1
  6 22  1  0
  7  5  1  0
  9 12  1  6
  9 13  1  0
  9  5  1  0
 10  6  2  0
 11  9  1  0
 13 14  1  0
 14 28  1  0
 15 13  2  0
 16  1  1  0
 16 18  2  0
 17 20  1  1
 17 16  1  0
 19 17  1  0
 21 17  1  0
 22 24  1  0
 22 23  1  0
 23 25  1  6
 23 26  1  0
 23 27  1  0
M  END
$$$$
