-46.41886294
     RDKit          3D

 28 27  0  0  1  0  0  0  0  0999 V2000
    0.8430   -0.1098    0.5032 N   0  0  0  0  0  0  0  0  0  0  0  0
    0.4104   -0.4432    1.3594 H   0  0  0  0  0  0  0  0  0  0  0  0
    0.1138    0.9352   -0.1642 C   0  0  1  0  0  0  0  0  0  0  0  0
    0.8126    1.6131   -0.6622 H   0  0  0  0  0  0  0  0  0  0  0  0
   -0.8834    0.3716   -1.2071 C   0  0  2  0  0  0  0  0  0  0  0  0
   -0.6763    1.6952    0.9072 C   0  0  0  0  0  0  0  0  0  0  0  0
   -0.3313   -0.0069   -2.0678 H   0  0  0  0  0  0  0  0  0  0  0  0
   -1.5378    1.1767   -1.5459 H   0  0  0  0  0  0  0  0  0  0  0  0
   -1.7359   -0.7562   -0.6282 C   0  0  2  0  0  0  0  0  0  0  0  0
   -1.0531    1.1522    1.9243 O   0  0  0  0  0  0  0  0  0  0  0  0
   -2.5283   -1.0076   -1.3377 H   0  0  0  0  0  0  0  0  0  0  0  0
   -2.2004   -0.4555    0.3118 H   0  0  0  0  0  0  0  0  0  0  0  0
   -0.9618   -2.0319   -0.3716 C   0  0  0  0  0  0  0  0  0  0  0  0
   -0.0816   -2.3131   -1.3440 O   0  0  0  0  0  0  0  0  0  0  0  0
   -1.1414   -2.7565    0.5663 O   0  0  0  0  0  0  0  0  0  0  0  0
    1.9589   -0.7575    0.0942 C   0  0  0  0  0  0  0  0  0  0  0  0
    2.6150   -0.2366   -1.1680 C   0  0  2  0  0  0  0  0  0  0  0  0
    2.4030   -1.6966    0.7192 O   0  0  0  0  0  0  0  0  0  0  0  0
    3.5191   -0.8119   -1.3454 H   0  0  0  0  0  0  0  0  0  0  0  0
    2.8787    0.8128   -1.0568 H   0  0  0  0  0  0  0  0  0  0  0  0
    1.9489   -0.3511   -2.0188 H   0  0  0  0  0  0  0  0  0  0  0  0
   -0.9777    2.9845    0.6483 N   0  0  0  0  0  0  0  0  0  0  0  0
   -0.5048    3.8160   -0.4326 C   0  0  1  0  0  0  0  0  0  0  0  0
   -1.4774    3.4456    1.3959 H   0  0  0  0  0  0  0  0  0  0  0  0
   -1.0494    4.7568   -0.4113 H   0  0  0  0  0  0  0  0  0  0  0  0
    0.5631    4.0344   -0.3353 H   0  0  0  0  0  0  0  0  0  0  0  0
   -0.6798    3.3420   -1.3985 H   0  0  0  0  0  0  0  0  0  0  0  0
    0.4161   -3.1136   -1.1125 H   0  0  0  0  0  0  0  0  0  0  0  0
  1  2  1  0
  3  4  1  6
  3  1  1  0
  3  6  1  0
  5  9  1  0
  5  3  1  0
  6 10  2  0
  5  7  1  6
  8  5  1  0
  9 13  1  0
  9 12  1  1
 11  9  1  0
 13 15  2  0
 14 28  1  0
 14 13  1  0
 16  1  1  0
 16 18  2  0
 17 20  1  1
 17 16  1  0
 19 17  1  0
 21 17  1  0
 22  6  1  0
 22 24  1  0
 23 25  1  6
 23 26  1  0
 23 22  1  0
 27 23  1  0
M  END
$$$$
