-46.41823101
     RDKit          3D

 28 27  0  0  1  0  0  0  0  0999 V2000
    1.6248   -0.4231    0.1373 N   0  0  0  0  0  0  0  0  0  0  0  0
    1.4611   -1.1743    0.7932 H   0  0  0  0  0  0  0  0  0  0  0  0
    0.5957   -0.1567   -0.8299 C   0  0  1  0  0  0  0  0  0  0  0  0
    1.0745    0.1930   -1.7540 H   0  0  0  0  0  0  0  0  0  0  0  0
   -0.1569   -1.4486   -1.1946 C   0  0  2  0  0  0  0  0  0  0  0  0
   -0.4218    0.9520   -0.4949 C   0  0  0  0  0  0  0  0  0  0  0  0
    0.5823   -2.2145   -1.4370 H   0  0  0  0  0  0  0  0  0  0  0  0
   -0.7576   -1.2514   -2.0832 H   0  0  0  0  0  0  0  0  0  0  0  0
   -1.0827   -1.9720   -0.0907 C   0  0  2  0  0  0  0  0  0  0  0  0
   -1.1549    1.3369   -1.3905 O   0  0  0  0  0  0  0  0  0  0  0  0
   -0.5716   -2.0431    0.8700 H   0  0  0  0  0  0  0  0  0  0  0  0
   -1.4352   -2.9647   -0.3762 H   0  0  0  0  0  0  0  0  0  0  0  0
   -2.2982   -1.0858    0.0682 C   0  0  0  0  0  0  0  0  0  0  0  0
   -3.0496   -1.0803   -1.0281 O   0  0  0  0  0  0  0  0  0  0  0  0
   -2.5758   -0.4704    1.0640 O   0  0  0  0  0  0  0  0  0  0  0  0
    2.7901    0.2471    0.3237 C   0  0  0  0  0  0  0  0  0  0  0  0
    3.0576    1.3972   -0.6166 C   0  0  2  0  0  0  0  0  0  0  0  0
    3.5478   -0.0816    1.2131 O   0  0  0  0  0  0  0  0  0  0  0  0
    2.2249    2.0966   -0.6168 H   0  0  0  0  0  0  0  0  0  0  0  0
    3.2045    1.0259   -1.6290 H   0  0  0  0  0  0  0  0  0  0  0  0
    3.9619    1.9054   -0.2945 H   0  0  0  0  0  0  0  0  0  0  0  0
   -0.4683    1.5416    0.7137 N   0  0  0  0  0  0  0  0  0  0  0  0
    0.0366    1.1205    2.0033 C   0  0  1  0  0  0  0  0  0  0  0  0
   -1.2248    2.2131    0.7596 H   0  0  0  0  0  0  0  0  0  0  0  0
   -0.2572    1.8685    2.7359 H   0  0  0  0  0  0  0  0  0  0  0  0
   -0.3998    0.1650    2.3014 H   0  0  0  0  0  0  0  0  0  0  0  0
    1.1220    1.0484    2.0082 H   0  0  0  0  0  0  0  0  0  0  0  0
   -3.7793   -0.4466   -0.9487 H   0  0  0  0  0  0  0  0  0  0  0  0
  1 16  1  0
  1  2  1  0
  3  4  1  6
  3  6  1  0
  3  1  1  0
  5  3  1  0
  5  9  1  0
  6 22  1  0
  5  7  1  6
  8  5  1  0
  9 13  1  0
  9 11  1  1
 10  6  2  0
 12  9  1  0
 13 15  2  0
 14 28  1  0
 14 13  1  0
 16 18  2  0
 17 21  1  1
 17 16  1  0
 19 17  1  0
 20 17  1  0
 22 24  1  0
 22 23  1  0
 23 27  1  6
 23 26  1  0
 23 25  1  0
M  END
$$$$
