-46.41778509
     RDKit          3D

 28 27  0  0  1  0  0  0  0  0999 V2000
    1.1397   -0.0244    0.2350 N   0  0  0  0  0  0  0  0  0  0  0  0
    0.6866   -0.5856    0.9462 H   0  0  0  0  0  0  0  0  0  0  0  0
    0.2419    0.6505   -0.6692 C   0  0  1  0  0  0  0  0  0  0  0  0
    0.7772    1.4702   -1.1630 H   0  0  0  0  0  0  0  0  0  0  0  0
   -0.3208   -0.2831   -1.7597 C   0  0  2  0  0  0  0  0  0  0  0  0
   -0.9085    1.2934    0.1246 C   0  0  0  0  0  0  0  0  0  0  0  0
    0.4151   -0.3880   -2.5584 H   0  0  0  0  0  0  0  0  0  0  0  0
   -1.2183    0.1821   -2.1694 H   0  0  0  0  0  0  0  0  0  0  0  0
   -0.6690   -1.6894   -1.2550 C   0  0  2  0  0  0  0  0  0  0  0  0
   -2.0747    1.1300   -0.1693 O   0  0  0  0  0  0  0  0  0  0  0  0
    0.2064   -2.1476   -0.7922 H   0  0  0  0  0  0  0  0  0  0  0  0
   -0.9852   -2.2929   -2.1062 H   0  0  0  0  0  0  0  0  0  0  0  0
   -1.8054   -1.6812   -0.2595 C   0  0  0  0  0  0  0  0  0  0  0  0
   -1.3861   -1.4082    0.9907 O   0  0  0  0  0  0  0  0  0  0  0  0
   -2.9483   -1.9328   -0.5105 O   0  0  0  0  0  0  0  0  0  0  0  0
    2.4820   -0.1893    0.1421 C   0  0  0  0  0  0  0  0  0  0  0  0
    3.1792    0.5311   -0.9908 C   0  0  2  0  0  0  0  0  0  0  0  0
    3.0732   -0.8667    0.9562 O   0  0  0  0  0  0  0  0  0  0  0  0
    3.0707    1.6086   -0.8859 H   0  0  0  0  0  0  0  0  0  0  0  0
    2.7698    0.2254   -1.9502 H   0  0  0  0  0  0  0  0  0  0  0  0
    4.2355    0.2808   -0.9567 H   0  0  0  0  0  0  0  0  0  0  0  0
   -0.5613    2.0786    1.1633 N   0  0  0  0  0  0  0  0  0  0  0  0
    0.7522    2.4695    1.6151 C   0  0  1  0  0  0  0  0  0  0  0  0
   -1.3495    2.4563    1.6704 H   0  0  0  0  0  0  0  0  0  0  0  0
    1.2276    1.6871    2.2112 H   0  0  0  0  0  0  0  0  0  0  0  0
    1.3984    2.6991    0.7681 H   0  0  0  0  0  0  0  0  0  0  0  0
    0.6588    3.3649    2.2262 H   0  0  0  0  0  0  0  0  0  0  0  0
   -2.1503   -1.3778    1.5872 H   0  0  0  0  0  0  0  0  0  0  0  0
  1  2  1  0
  3  4  1  6
  3  6  1  0
  3  1  1  0
  5  9  1  0
  5  3  1  0
  6 22  1  0
  5  7  1  6
  8  5  1  0
  9 11  1  1
  9 13  1  0
 10  6  2  0
 12  9  1  0
 13 14  1  0
 14 28  1  0
 15 13  2  0
 16  1  1  0
 16 18  2  0
 17 21  1  6
 17 19  1  0
 17 16  1  0
 20 17  1  0
 22 23  1  0
 22 24  1  0
 23 25  1  1
 23 27  1  0
 26 23  1  0
M  END
$$$$
