-46.41686665
     RDKit          3D

 28 27  0  0  1  0  0  0  0  0999 V2000
    1.8149   -0.4476    0.3958 N   0  0  0  0  0  0  0  0  0  0  0  0
    1.8594   -1.0388    1.2140 H   0  0  0  0  0  0  0  0  0  0  0  0
    0.5851   -0.4474   -0.3583 C   0  0  1  0  0  0  0  0  0  0  0  0
    0.8222   -0.4722   -1.4309 H   0  0  0  0  0  0  0  0  0  0  0  0
   -0.2285   -1.7058   -0.0265 C   0  0  2  0  0  0  0  0  0  0  0  0
   -0.2570    0.8267   -0.1730 C   0  0  0  0  0  0  0  0  0  0  0  0
   -0.5711   -1.6733    1.0085 H   0  0  0  0  0  0  0  0  0  0  0  0
    0.4337   -2.5671   -0.1430 H   0  0  0  0  0  0  0  0  0  0  0  0
   -1.4310   -1.8872   -0.9494 C   0  0  2  0  0  0  0  0  0  0  0  0
   -0.8329    1.3165   -1.1263 O   0  0  0  0  0  0  0  0  0  0  0  0
   -1.8200   -2.9038   -0.8407 H   0  0  0  0  0  0  0  0  0  0  0  0
   -1.1491   -1.7553   -1.9949 H   0  0  0  0  0  0  0  0  0  0  0  0
   -2.6004   -0.9682   -0.6791 C   0  0  0  0  0  0  0  0  0  0  0  0
   -2.6353   -0.5070    0.5817 O   0  0  0  0  0  0  0  0  0  0  0  0
   -3.4623   -0.7214   -1.4735 O   0  0  0  0  0  0  0  0  0  0  0  0
    2.8914    0.3621    0.2217 C   0  0  0  0  0  0  0  0  0  0  0  0
    2.8633    1.2507   -0.9958 C   0  0  2  0  0  0  0  0  0  0  0  0
    3.8096    0.3322    1.0151 O   0  0  0  0  0  0  0  0  0  0  0  0
    3.7342    1.8993   -0.9778 H   0  0  0  0  0  0  0  0  0  0  0  0
    1.9586    1.8529   -1.0204 H   0  0  0  0  0  0  0  0  0  0  0  0
    2.8940    0.6403   -1.8963 H   0  0  0  0  0  0  0  0  0  0  0  0
   -0.3415    1.3978    1.0431 N   0  0  0  0  0  0  0  0  0  0  0  0
    0.2065    0.9881    2.3147 C   0  0  1  0  0  0  0  0  0  0  0  0
   -0.8864    2.2491    1.0410 H   0  0  0  0  0  0  0  0  0  0  0  0
   -0.2917    1.5508    3.1012 H   0  0  0  0  0  0  0  0  0  0  0  0
    0.0274   -0.0717    2.4923 H   0  0  0  0  0  0  0  0  0  0  0  0
    1.2796    1.1857    2.3758 H   0  0  0  0  0  0  0  0  0  0  0  0
   -3.4091    0.0677    0.6898 H   0  0  0  0  0  0  0  0  0  0  0  0
  1  2  1  0
  3  4  1  6
  3  6  1  0
  3  5  1  0
  3  1  1  0
  5  7  1  1
  6 22  1  0
  8  5  1  0
  9 11  1  6
  9 13  1  0
  9  5  1  0
 10  6  2  0
 12  9  1  0
 13 14  1  0
 14 28  1  0
 15 13  2  0
 16  1  1  0
 16 18  2  0
 17 19  1  1
 17 16  1  0
 20 17  1  0
 21 17  1  0
 22 23  1  0
 23 27  1  6
 23 26  1  0
 23 25  1  0
 24 22  1  0
M  END
$$$$
