-46.41667139
     RDKit          3D

 28 27  0  0  1  0  0  0  0  0999 V2000
    1.0887   -0.1474    0.6838 N   0  0  0  0  0  0  0  0  0  0  0  0
    1.0293   -0.3857    1.6642 H   0  0  0  0  0  0  0  0  0  0  0  0
   -0.1177    0.2910    0.0295 C   0  0  1  0  0  0  0  0  0  0  0  0
   -0.1421   -0.1234   -0.9853 H   0  0  0  0  0  0  0  0  0  0  0  0
   -1.3523   -0.2197    0.7802 C   0  0  2  0  0  0  0  0  0  0  0  0
   -0.2215    1.8153   -0.1675 C   0  0  0  0  0  0  0  0  0  0  0  0
   -2.2427    0.2566    0.3657 H   0  0  0  0  0  0  0  0  0  0  0  0
   -1.2841    0.0567    1.8343 H   0  0  0  0  0  0  0  0  0  0  0  0
   -1.4920   -1.7467    0.6754 C   0  0  2  0  0  0  0  0  0  0  0  0
   -0.6928    2.2585   -1.1966 O   0  0  0  0  0  0  0  0  0  0  0  0
   -2.2011   -2.1001    1.4237 H   0  0  0  0  0  0  0  0  0  0  0  0
   -0.5215   -2.2191    0.8284 H   0  0  0  0  0  0  0  0  0  0  0  0
   -2.0255   -2.1325   -0.6841 C   0  0  0  0  0  0  0  0  0  0  0  0
   -1.0565   -2.2035   -1.6056 O   0  0  0  0  0  0  0  0  0  0  0  0
   -3.1788   -2.3389   -0.9407 O   0  0  0  0  0  0  0  0  0  0  0  0
    2.3451   -0.1683    0.1704 C   0  0  0  0  0  0  0  0  0  0  0  0
    2.4676    0.1745   -1.2923 C   0  0  2  0  0  0  0  0  0  0  0  0
    3.2866   -0.4608    0.8790 O   0  0  0  0  0  0  0  0  0  0  0  0
    3.5193    0.1927   -1.5627 H   0  0  0  0  0  0  0  0  0  0  0  0
    2.0181    1.1418   -1.5040 H   0  0  0  0  0  0  0  0  0  0  0  0
    1.9589   -0.5812   -1.8879 H   0  0  0  0  0  0  0  0  0  0  0  0
    0.1905    2.6460    0.8094 N   0  0  0  0  0  0  0  0  0  0  0  0
    0.7870    2.3638    2.0943 C   0  0  1  0  0  0  0  0  0  0  0  0
    0.1043    3.6215    0.5583 H   0  0  0  0  0  0  0  0  0  0  0  0
    0.7963    3.2819    2.6775 H   0  0  0  0  0  0  0  0  0  0  0  0
    0.2041    1.6230    2.6416 H   0  0  0  0  0  0  0  0  0  0  0  0
    1.8153    2.0075    1.9948 H   0  0  0  0  0  0  0  0  0  0  0  0
   -1.4284   -2.4255   -2.4743 H   0  0  0  0  0  0  0  0  0  0  0  0
  1  2  1  0
  3  4  1  6
  3  1  1  0
  3  5  1  0
  5  8  1  1
  6  3  1  0
  6 22  1  0
  7  5  1  0
  9  5  1  0
  9 12  1  1
  9 11  1  0
 10  6  2  0
 13  9  1  0
 14 13  1  0
 15 13  2  0
 16  1  1  0
 16 18  2  0
 17 16  1  0
 17 19  1  6
 20 17  1  0
 21 17  1  0
 22 23  1  0
 23 26  1  1
 23 25  1  0
 24 22  1  0
 27 23  1  0
 28 14  1  0
M  END
$$$$
