-46.41660761
     RDKit          3D

 28 27  0  0  1  0  0  0  0  0999 V2000
    1.1291    0.2536    0.5836 N   0  0  0  0  0  0  0  0  0  0  0  0
    1.0760    0.0049    1.5636 H   0  0  0  0  0  0  0  0  0  0  0  0
   -0.0843    0.8086    0.0274 C   0  0  1  0  0  0  0  0  0  0  0  0
    0.1212    1.1754   -0.9818 H   0  0  0  0  0  0  0  0  0  0  0  0
   -1.2114   -0.2328   -0.0091 C   0  0  2  0  0  0  0  0  0  0  0  0
   -0.5324    1.9916    0.9086 C   0  0  0  0  0  0  0  0  0  0  0  0
   -2.1213    0.2531   -0.3621 H   0  0  0  0  0  0  0  0  0  0  0  0
   -1.4074   -0.5803    1.0064 H   0  0  0  0  0  0  0  0  0  0  0  0
   -0.8756   -1.4299   -0.8920 C   0  0  2  0  0  0  0  0  0  0  0  0
   -1.5499    1.9623    1.5665 O   0  0  0  0  0  0  0  0  0  0  0  0
    0.1008   -1.8366   -0.6105 H   0  0  0  0  0  0  0  0  0  0  0  0
   -0.8462   -1.1648   -1.9498 H   0  0  0  0  0  0  0  0  0  0  0  0
   -1.8701   -2.5512   -0.7098 C   0  0  0  0  0  0  0  0  0  0  0  0
   -1.9734   -3.2954   -1.8199 O   0  0  0  0  0  0  0  0  0  0  0  0
   -2.4903   -2.7885    0.2882 O   0  0  0  0  0  0  0  0  0  0  0  0
    2.2680   -0.1536   -0.0329 C   0  0  0  0  0  0  0  0  0  0  0  0
    2.3839    0.1031   -1.5201 C   0  0  2  0  0  0  0  0  0  0  0  0
    3.1533   -0.6770    0.6103 O   0  0  0  0  0  0  0  0  0  0  0  0
    2.3792    1.1701   -1.7287 H   0  0  0  0  0  0  0  0  0  0  0  0
    1.5706   -0.3693   -2.0636 H   0  0  0  0  0  0  0  0  0  0  0  0
    3.3278   -0.3145   -1.8592 H   0  0  0  0  0  0  0  0  0  0  0  0
    0.2780    3.0694    0.9302 N   0  0  0  0  0  0  0  0  0  0  0  0
    1.5010    3.2924    0.1989 C   0  0  1  0  0  0  0  0  0  0  0  0
   -0.0409    3.8092    1.5397 H   0  0  0  0  0  0  0  0  0  0  0  0
    2.2632    2.5584    0.4671 H   0  0  0  0  0  0  0  0  0  0  0  0
    1.3257    3.2467   -0.8791 H   0  0  0  0  0  0  0  0  0  0  0  0
    1.8767    4.2834    0.4396 H   0  0  0  0  0  0  0  0  0  0  0  0
   -2.5931   -4.0291   -1.6806 H   0  0  0  0  0  0  0  0  0  0  0  0
  1  2  1  0
  3  4  1  6
  3  1  1  0
  3  6  1  0
  5  3  1  0
  5  8  1  1
  6 22  1  0
  6 10  2  0
  7  5  1  0
  9 13  1  0
  9 11  1  1
  9  5  1  0
 12  9  1  0
 13 15  2  0
 14 28  1  0
 14 13  1  0
 16  1  1  0
 16 18  2  0
 17 16  1  0
 17 19  1  1
 20 17  1  0
 21 17  1  0
 22 24  1  0
 23 27  1  6
 23 25  1  0
 23 22  1  0
 26 23  1  0
M  END
$$$$
