-46.41654266
     RDKit          3D

 28 27  0  0  1  0  0  0  0  0999 V2000
    1.5355   -0.1546    0.7564 N   0  0  0  0  0  0  0  0  0  0  0  0
    1.6498   -0.5098    1.6966 H   0  0  0  0  0  0  0  0  0  0  0  0
    0.2025   -0.1617    0.2047 C   0  0  1  0  0  0  0  0  0  0  0  0
    0.1959   -0.7795   -0.7051 H   0  0  0  0  0  0  0  0  0  0  0  0
   -0.7797   -0.7773    1.2167 C   0  0  2  0  0  0  0  0  0  0  0  0
   -0.3359    1.2080   -0.2295 C   0  0  0  0  0  0  0  0  0  0  0  0
   -0.7797   -0.1752    2.1293 H   0  0  0  0  0  0  0  0  0  0  0  0
   -0.4284   -1.7811    1.4663 H   0  0  0  0  0  0  0  0  0  0  0  0
   -2.2155   -0.8807    0.6862 C   0  0  2  0  0  0  0  0  0  0  0  0
   -1.0913    1.2619   -1.1980 O   0  0  0  0  0  0  0  0  0  0  0  0
   -2.6124    0.1062    0.4434 H   0  0  0  0  0  0  0  0  0  0  0  0
   -2.8374   -1.3302    1.4611 H   0  0  0  0  0  0  0  0  0  0  0  0
   -2.2856   -1.7893   -0.5435 C   0  0  0  0  0  0  0  0  0  0  0  0
   -2.0613   -1.2073   -1.7147 O   0  0  0  0  0  0  0  0  0  0  0  0
   -2.5134   -2.9639   -0.4538 O   0  0  0  0  0  0  0  0  0  0  0  0
    2.7029    0.0761    0.0898 C   0  0  0  0  0  0  0  0  0  0  0  0
    2.5691    0.4383   -1.3666 C   0  0  2  0  0  0  0  0  0  0  0  0
    3.7590   -0.0018    0.6764 O   0  0  0  0  0  0  0  0  0  0  0  0
    2.1920   -0.4176   -1.9238 H   0  0  0  0  0  0  0  0  0  0  0  0
    3.5480    0.7067   -1.7524 H   0  0  0  0  0  0  0  0  0  0  0  0
    1.8812    1.2683   -1.5058 H   0  0  0  0  0  0  0  0  0  0  0  0
   -0.0508    2.3274    0.4415 N   0  0  0  0  0  0  0  0  0  0  0  0
    0.6883    2.5672    1.6569 C   0  0  1  0  0  0  0  0  0  0  0  0
   -0.5024    3.1462    0.0486 H   0  0  0  0  0  0  0  0  0  0  0  0
    1.3932    3.3840    1.4972 H   0  0  0  0  0  0  0  0  0  0  0  0
    0.0043    2.8506    2.4611 H   0  0  0  0  0  0  0  0  0  0  0  0
    1.2446    1.6854    1.9526 H   0  0  0  0  0  0  0  0  0  0  0  0
   -1.8185   -0.2484   -1.6483 H   0  0  0  0  0  0  0  0  0  0  0  0
  1  2  1  0
  3  4  1  6
  3  1  1  0
  3  5  1  0
  5  8  1  1
  5  7  1  0
  6  3  1  0
  6 22  1  0
  9  5  1  0
  9 12  1  1
 10  6  2  0
 11  9  1  0
 13 15  2  0
 13  9  1  0
 14 28  1  0
 14 13  1  0
 16 18  2  0
 16  1  1  0
 17 16  1  0
 17 19  1  6
 20 17  1  0
 21 17  1  0
 22 23  1  0
 23 27  1  1
 23 26  1  0
 24 22  1  0
 25 23  1  0
M  END
$$$$
