-46.41632051
     RDKit          3D

 28 27  0  0  1  0  0  0  0  0999 V2000
    1.2968    0.2424    0.4329 N   0  0  0  0  0  0  0  0  0  0  0  0
    1.1126   -0.0753    1.3754 H   0  0  0  0  0  0  0  0  0  0  0  0
    0.1650    0.7845   -0.2866 C   0  0  1  0  0  0  0  0  0  0  0  0
    0.5361    1.4197   -1.0978 H   0  0  0  0  0  0  0  0  0  0  0  0
   -0.7273   -0.3091   -0.9003 C   0  0  2  0  0  0  0  0  0  0  0  0
   -0.6327    1.6795    0.6761 C   0  0  0  0  0  0  0  0  0  0  0  0
   -0.1846   -0.7969   -1.7119 H   0  0  0  0  0  0  0  0  0  0  0  0
   -1.6113    0.1703   -1.3205 H   0  0  0  0  0  0  0  0  0  0  0  0
   -1.1647   -1.3582    0.1178 C   0  0  2  0  0  0  0  0  0  0  0  0
   -1.7568    1.4167    1.0509 O   0  0  0  0  0  0  0  0  0  0  0  0
   -1.7295   -0.8678    0.9158 H   0  0  0  0  0  0  0  0  0  0  0  0
   -0.3082   -1.8620    0.5697 H   0  0  0  0  0  0  0  0  0  0  0  0
   -2.0623   -2.4224   -0.4555 C   0  0  0  0  0  0  0  0  0  0  0  0
   -2.6057   -2.0859   -1.6334 O   0  0  0  0  0  0  0  0  0  0  0  0
   -2.2959   -3.4746    0.0763 O   0  0  0  0  0  0  0  0  0  0  0  0
    2.5368   -0.0627   -0.0306 C   0  0  0  0  0  0  0  0  0  0  0  0
    2.8344    0.3087   -1.4653 C   0  0  2  0  0  0  0  0  0  0  0  0
    3.3518   -0.5781    0.7035 O   0  0  0  0  0  0  0  0  0  0  0  0
    2.1288   -0.1674   -2.1408 H   0  0  0  0  0  0  0  0  0  0  0  0
    3.8397   -0.0269   -1.7029 H   0  0  0  0  0  0  0  0  0  0  0  0
    2.7824    1.3871   -1.5996 H   0  0  0  0  0  0  0  0  0  0  0  0
    0.0001    2.7893    1.1058 N   0  0  0  0  0  0  0  0  0  0  0  0
    1.2949    3.2912    0.7123 C   0  0  1  0  0  0  0  0  0  0  0  0
   -0.5477    3.3600    1.7343 H   0  0  0  0  0  0  0  0  0  0  0  0
    2.0748    2.5502    0.8922 H   0  0  0  0  0  0  0  0  0  0  0  0
    1.3068    3.5687   -0.3457 H   0  0  0  0  0  0  0  0  0  0  0  0
    1.5194    4.1774    1.2999 H   0  0  0  0  0  0  0  0  0  0  0  0
   -3.1976   -2.7922   -1.9370 H   0  0  0  0  0  0  0  0  0  0  0  0
  1  2  1  0
  3  4  1  6
  3  1  1  0
  3  6  1  0
  5  3  1  0
  5  9  1  0
  6 10  2  0
  6 22  1  0
  5  7  1  6
  8  5  1  0
  9 12  1  1
  9 11  1  0
 13 15  2  0
 13  9  1  0
 14 13  1  0
 16  1  1  0
 16 18  2  0
 17 16  1  0
 17 19  1  6
 20 17  1  0
 21 17  1  0
 22 24  1  0
 23 25  1  6
 23 22  1  0
 23 27  1  0
 26 23  1  0
 28 14  1  0
M  END
$$$$
