-46.42131867
     RDKit          3D

 28 27  0  0  1  0  0  0  0  0999 V2000
    1.2607    0.1687    0.5895 N   0  0  0  0  0  0  0  0  0  0  0  0
    1.6379    0.0334    1.5199 H   0  0  0  0  0  0  0  0  0  0  0  0
   -0.1720    0.3579    0.5409 C   0  0  1  0  0  0  0  0  0  0  0  0
   -0.4763    0.5933   -0.4805 H   0  0  0  0  0  0  0  0  0  0  0  0
   -0.9098   -0.8993    1.0262 C   0  0  2  0  0  0  0  0  0  0  0  0
   -0.5384    1.5287    1.4701 C   0  0  0  0  0  0  0  0  0  0  0  0
   -1.9693   -0.6609    1.1262 H   0  0  0  0  0  0  0  0  0  0  0  0
   -0.5392   -1.1538    2.0203 H   0  0  0  0  0  0  0  0  0  0  0  0
   -0.7236   -2.1038    0.0981 C   0  0  2  0  0  0  0  0  0  0  0  0
   -1.1406    1.3670    2.5121 O   0  0  0  0  0  0  0  0  0  0  0  0
   -1.0665   -3.0147    0.5874 H   0  0  0  0  0  0  0  0  0  0  0  0
    0.3360   -2.2123   -0.1474 H   0  0  0  0  0  0  0  0  0  0  0  0
   -1.4982   -1.9376   -1.1832 C   0  0  0  0  0  0  0  0  0  0  0  0
   -2.3340   -2.9530   -1.3997 O   0  0  0  0  0  0  0  0  0  0  0  0
   -1.4051   -1.0076   -1.9444 O   0  0  0  0  0  0  0  0  0  0  0  0
    2.1663   -0.0510   -0.3999 C   0  0  0  0  0  0  0  0  0  0  0  0
    1.7018    0.0851   -1.8291 C   0  0  2  0  0  0  0  0  0  0  0  0
    3.3164   -0.3109   -0.1074 O   0  0  0  0  0  0  0  0  0  0  0  0
    2.4411   -0.3878   -2.4700 H   0  0  0  0  0  0  0  0  0  0  0  0
    1.6483    1.1390   -2.0949 H   0  0  0  0  0  0  0  0  0  0  0  0
    0.7298   -0.3662   -1.9996 H   0  0  0  0  0  0  0  0  0  0  0  0
   -0.1379    2.7542    1.0809 N   0  0  0  0  0  0  0  0  0  0  0  0
    0.5889    3.1192   -0.1101 C   0  0  1  0  0  0  0  0  0  0  0  0
   -0.3552    3.4899    1.7382 H   0  0  0  0  0  0  0  0  0  0  0  0
    1.6116    2.7355   -0.0840 H   0  0  0  0  0  0  0  0  0  0  0  0
    0.0884    2.7340   -1.0003 H   0  0  0  0  0  0  0  0  0  0  0  0
    0.6259    4.2035   -0.1795 H   0  0  0  0  0  0  0  0  0  0  0  0
   -2.8277   -2.8293   -2.2266 H   0  0  0  0  0  0  0  0  0  0  0  0
  1  2  1  0
  3  4  1  6
  3  1  1  0
  3  5  1  0
  3  6  1  0
  5  7  1  1
  5  8  1  0
  6 10  2  0
  9 11  1  1
  9  5  1  0
 12  9  1  0
 13  9  1  0
 14 13  1  0
 15 13  2  0
 16 18  2  0
 16  1  1  0
 17 16  1  0
 17 19  1  6
 20 17  1  0
 21 17  1  0
 22  6  1  0
 22 24  1  0
 23 25  1  1
 23 22  1  0
 26 23  1  0
 27 23  1  0
 28 14  1  0
M  END
$$$$
