-43.25576529
     RDKit          3D

 25 24  0  0  1  0  0  0  0  0999 V2000
   -0.7710   -0.6606   -0.7259 N   0  0  0  0  0  0  0  0  0  0  0  0
   -1.0888   -0.4573   -1.6654 H   0  0  0  0  0  0  0  0  0  0  0  0
   -0.0949    0.4216   -0.0506 C   0  0  1  0  0  0  0  0  0  0  0  0
    0.0164    0.1704    1.0091 H   0  0  0  0  0  0  0  0  0  0  0  0
    1.2993    0.6859   -0.6389 C   0  0  2  0  0  0  0  0  0  0  0  0
   -0.9553    1.6947   -0.1624 C   0  0  0  0  0  0  0  0  0  0  0  0
    1.4352    1.7659   -0.7587 H   0  0  0  0  0  0  0  0  0  0  0  0
    1.3971    0.2455   -1.6324 H   0  0  0  0  0  0  0  0  0  0  0  0
    2.4101    0.1598    0.2277 C   0  0  0  0  0  0  0  0  0  0  0  0
   -0.5682    2.6928   -0.7360 O   0  0  0  0  0  0  0  0  0  0  0  0
    3.5986    0.2874   -0.3635 O   0  0  0  0  0  0  0  0  0  0  0  0
    2.2773   -0.3215    1.3232 O   0  0  0  0  0  0  0  0  0  0  0  0
   -2.1742    1.6410    0.4030 N   0  0  0  0  0  0  0  0  0  0  0  0
   -2.7538    0.5714    1.1793 C   0  0  1  0  0  0  0  0  0  0  0  0
   -2.7205    2.4832    0.2906 H   0  0  0  0  0  0  0  0  0  0  0  0
   -2.9368   -0.3127    0.5655 H   0  0  0  0  0  0  0  0  0  0  0  0
   -2.0984    0.2950    2.0078 H   0  0  0  0  0  0  0  0  0  0  0  0
   -3.7007    0.9116    1.5903 H   0  0  0  0  0  0  0  0  0  0  0  0
   -0.8599   -1.9755   -0.3839 C   0  0  0  0  0  0  0  0  0  0  0  0
   -0.3317   -2.3702    0.9718 C   0  0  1  0  0  0  0  0  0  0  0  0
   -1.3841   -2.7579   -1.1481 O   0  0  0  0  0  0  0  0  0  0  0  0
    0.6763   -1.9990    1.1333 H   0  0  0  0  0  0  0  0  0  0  0  0
   -0.9788   -1.9751    1.7524 H   0  0  0  0  0  0  0  0  0  0  0  0
   -0.3345   -3.4545    1.0363 H   0  0  0  0  0  0  0  0  0  0  0  0
    4.3075   -0.0435    0.2107 H   0  0  0  0  0  0  0  0  0  0  0  0
  1 19  1  0
  1  3  1  0
  2  1  1  0
  3  4  1  1
  5  3  1  0
  5  9  1  0
  6  3  1  0
  6 13  1  0
  5  7  1  6
  8  5  1  0
  9 12  2  0
 10  6  2  0
 11 25  1  0
 11  9  1  0
 13 14  1  0
 14 18  1  1
 14 17  1  0
 15 13  1  0
 16 14  1  0
 19 20  1  0
 20 24  1  6
 20 22  1  0
 20 23  1  0
 21 19  2  0
M  END
$$$$
