-43.25238728
     RDKit          3D

 25 24  0  0  1  0  0  0  0  0999 V2000
   -0.9169   -0.8761   -0.8291 N   0  0  0  0  0  0  0  0  0  0  0  0
   -1.2278   -0.5431   -1.7327 H   0  0  0  0  0  0  0  0  0  0  0  0
   -0.0334    0.0045   -0.0990 C   0  0  1  0  0  0  0  0  0  0  0  0
   -0.0270   -0.2847    0.9535 H   0  0  0  0  0  0  0  0  0  0  0  0
    1.3947   -0.0325   -0.6573 C   0  0  2  0  0  0  0  0  0  0  0  0
   -0.5893    1.4352   -0.2282 C   0  0  0  0  0  0  0  0  0  0  0  0
    1.4302    0.5657   -1.5737 H   0  0  0  0  0  0  0  0  0  0  0  0
    1.6943   -1.0503   -0.9120 H   0  0  0  0  0  0  0  0  0  0  0  0
    2.4228    0.5531    0.2770 C   0  0  0  0  0  0  0  0  0  0  0  0
   -0.1172    2.2462   -0.9962 O   0  0  0  0  0  0  0  0  0  0  0  0
    1.8812    1.1733    1.3360 O   0  0  0  0  0  0  0  0  0  0  0  0
    3.6093    0.4821    0.1146 O   0  0  0  0  0  0  0  0  0  0  0  0
   -1.6653    1.7177    0.5280 N   0  0  0  0  0  0  0  0  0  0  0  0
   -2.3338    0.8521    1.4693 C   0  0  1  0  0  0  0  0  0  0  0  0
   -2.0140    2.6603    0.4288 H   0  0  0  0  0  0  0  0  0  0  0  0
   -2.6067   -0.0939    0.9991 H   0  0  0  0  0  0  0  0  0  0  0  0
   -1.7036    0.6516    2.3405 H   0  0  0  0  0  0  0  0  0  0  0  0
   -3.2428    1.3409    1.8101 H   0  0  0  0  0  0  0  0  0  0  0  0
   -1.2195   -2.1758   -0.5687 C   0  0  0  0  0  0  0  0  0  0  0  0
   -0.6639   -2.7536    0.7137 C   0  0  1  0  0  0  0  0  0  0  0  0
   -1.9220   -2.8044   -1.3292 O   0  0  0  0  0  0  0  0  0  0  0  0
    0.4201   -2.6752    0.7342 H   0  0  0  0  0  0  0  0  0  0  0  0
   -1.0735   -2.2348    1.5779 H   0  0  0  0  0  0  0  0  0  0  0  0
   -0.9482   -3.8007    0.7663 H   0  0  0  0  0  0  0  0  0  0  0  0
    2.5818    1.5783    1.8721 H   0  0  0  0  0  0  0  0  0  0  0  0
  1 19  1  0
  1  3  1  0
  2  1  1  0
  3  4  1  1
  5  3  1  0
  5  9  1  0
  6  3  1  0
  6 13  1  0
  5  7  1  6
  8  5  1  0
  9 11  1  0
 10  6  2  0
 11 25  1  0
 12  9  2  0
 13 14  1  0
 14 18  1  1
 14 17  1  0
 15 13  1  0
 16 14  1  0
 19 20  1  0
 20 22  1  6
 20 24  1  0
 20 23  1  0
 21 19  2  0
M  END
$$$$
