-43.25219948
     RDKit          3D

 25 24  0  0  1  0  0  0  0  0999 V2000
   -0.7793   -0.8275   -0.9502 N   0  0  0  0  0  0  0  0  0  0  0  0
   -1.2965   -0.5213   -1.7701 H   0  0  0  0  0  0  0  0  0  0  0  0
   -0.3744    0.2472   -0.0924 C   0  0  1  0  0  0  0  0  0  0  0  0
   -0.4474   -0.0506    0.9568 H   0  0  0  0  0  0  0  0  0  0  0  0
    1.0715    0.7260   -0.4067 C   0  0  2  0  0  0  0  0  0  0  0  0
   -1.3301    1.4209   -0.3702 C   0  0  0  0  0  0  0  0  0  0  0  0
    1.1381    1.8081   -0.2733 H   0  0  0  0  0  0  0  0  0  0  0  0
    1.3103    0.4920   -1.4442 H   0  0  0  0  0  0  0  0  0  0  0  0
    2.1144    0.1029    0.4846 C   0  0  0  0  0  0  0  0  0  0  0  0
   -1.9356    1.5029   -1.4178 O   0  0  0  0  0  0  0  0  0  0  0  0
    1.8234    0.2675    1.7889 O   0  0  0  0  0  0  0  0  0  0  0  0
    3.1083   -0.4569    0.1175 O   0  0  0  0  0  0  0  0  0  0  0  0
   -1.4218    2.3723    0.5776 N   0  0  0  0  0  0  0  0  0  0  0  0
   -0.8994    2.3590    1.9242 C   0  0  1  0  0  0  0  0  0  0  0  0
   -2.0899    3.1008    0.3632 H   0  0  0  0  0  0  0  0  0  0  0  0
    0.0905    1.9104    1.9568 H   0  0  0  0  0  0  0  0  0  0  0  0
   -0.8250    3.3854    2.2787 H   0  0  0  0  0  0  0  0  0  0  0  0
   -1.5589    1.8068    2.6009 H   0  0  0  0  0  0  0  0  0  0  0  0
   -0.6411   -2.1682   -0.7976 C   0  0  0  0  0  0  0  0  0  0  0  0
    0.1207   -2.6294    0.4254 C   0  0  1  0  0  0  0  0  0  0  0  0
   -1.1007   -2.9330   -1.6159 O   0  0  0  0  0  0  0  0  0  0  0  0
    1.1569   -2.3078    0.3555 H   0  0  0  0  0  0  0  0  0  0  0  0
   -0.3192   -2.2295    1.3364 H   0  0  0  0  0  0  0  0  0  0  0  0
    0.0912   -3.7145    0.4603 H   0  0  0  0  0  0  0  0  0  0  0  0
    2.5149   -0.1331    2.3392 H   0  0  0  0  0  0  0  0  0  0  0  0
  1 19  1  0
  1  3  1  0
  2  1  1  0
  3  4  1  1
  5  7  1  6
  5  3  1  0
  5  9  1  0
  6  3  1  0
  6 13  1  0
  8  5  1  0
  9 11  1  0
 10  6  2  0
 11 25  1  0
 12  9  2  0
 13 14  1  0
 14 16  1  6
 14 17  1  0
 14 18  1  0
 15 13  1  0
 19 20  1  0
 20 24  1  1
 20 23  1  0
 21 19  2  0
 22 20  1  0
M  END
$$$$
