-43.25194574
     RDKit          3D

 25 24  0  0  1  0  0  0  0  0999 V2000
   -0.8483   -0.6679   -0.6680 N   0  0  0  0  0  0  0  0  0  0  0  0
   -1.3266   -0.4588   -1.5348 H   0  0  0  0  0  0  0  0  0  0  0  0
   -0.0973    0.4145   -0.0813 C   0  0  1  0  0  0  0  0  0  0  0  0
    0.0259    0.2344    0.9908 H   0  0  0  0  0  0  0  0  0  0  0  0
    1.2905    0.5811   -0.7297 C   0  0  2  0  0  0  0  0  0  0  0  0
   -0.9090    1.7152   -0.2403 C   0  0  0  0  0  0  0  0  0  0  0  0
    1.4395    1.6512   -0.9158 H   0  0  0  0  0  0  0  0  0  0  0  0
    1.3318    0.0678   -1.6909 H   0  0  0  0  0  0  0  0  0  0  0  0
    2.4315    0.0997    0.1203 C   0  0  0  0  0  0  0  0  0  0  0  0
   -0.4885    2.6758   -0.8505 O   0  0  0  0  0  0  0  0  0  0  0  0
    2.2924    0.4344    1.4153 O   0  0  0  0  0  0  0  0  0  0  0  0
    3.3870   -0.5067   -0.2811 O   0  0  0  0  0  0  0  0  0  0  0  0
   -2.1244    1.7252    0.3363 N   0  0  0  0  0  0  0  0  0  0  0  0
   -2.7442    0.7029    1.1455 C   0  0  1  0  0  0  0  0  0  0  0  0
   -2.6443    2.5791    0.1912 H   0  0  0  0  0  0  0  0  0  0  0  0
   -3.6351    1.1181    1.6095 H   0  0  0  0  0  0  0  0  0  0  0  0
   -3.0330   -0.1647    0.5485 H   0  0  0  0  0  0  0  0  0  0  0  0
   -2.0688    0.3712    1.9359 H   0  0  0  0  0  0  0  0  0  0  0  0
   -0.8532   -1.9860   -0.3295 C   0  0  0  0  0  0  0  0  0  0  0  0
   -0.0146   -2.3768    0.8629 C   0  0  1  0  0  0  0  0  0  0  0  0
   -1.5208   -2.7721   -0.9645 O   0  0  0  0  0  0  0  0  0  0  0  0
   -0.1235   -3.4452    1.0252 H   0  0  0  0  0  0  0  0  0  0  0  0
    1.0314   -2.1506    0.6695 H   0  0  0  0  0  0  0  0  0  0  0  0
   -0.3343   -1.8466    1.7571 H   0  0  0  0  0  0  0  0  0  0  0  0
    3.0725    0.1500    1.9168 H   0  0  0  0  0  0  0  0  0  0  0  0
  1 19  1  0
  1  3  1  0
  2  1  1  0
  3  4  1  1
  5  3  1  0
  5  9  1  0
  6  3  1  0
  6 13  1  0
  5  7  1  6
  8  5  1  0
  9 11  1  0
 10  6  2  0
 11 25  1  0
 12  9  2  0
 13 14  1  0
 14 16  1  1
 14 18  1  0
 15 13  1  0
 17 14  1  0
 19 20  1  0
 20 22  1  1
 20 24  1  0
 21 19  2  0
 23 20  1  0
M  END
$$$$
