-43.25106254
     RDKit          3D

 25 24  0  0  1  0  0  0  0  0999 V2000
   -0.3375   -0.7199    0.5802 N   0  0  0  0  0  0  0  0  0  0  0  0
   -0.2149   -1.0716    1.5197 H   0  0  0  0  0  0  0  0  0  0  0  0
    0.0425    0.6580    0.3567 C   0  0  1  0  0  0  0  0  0  0  0  0
    0.1957    1.1044    1.3460 H   0  0  0  0  0  0  0  0  0  0  0  0
    1.3506    0.7976   -0.4356 C   0  0  2  0  0  0  0  0  0  0  0  0
   -1.0665    1.4764   -0.3311 C   0  0  0  0  0  0  0  0  0  0  0  0
    1.6428    1.8504   -0.4430 H   0  0  0  0  0  0  0  0  0  0  0  0
    1.2184    0.4982   -1.4741 H   0  0  0  0  0  0  0  0  0  0  0  0
    2.4833   -0.0001    0.1586 C   0  0  0  0  0  0  0  0  0  0  0  0
   -0.8573    2.1462   -1.3223 O   0  0  0  0  0  0  0  0  0  0  0  0
    2.4107   -0.0903    1.4960 O   0  0  0  0  0  0  0  0  0  0  0  0
    3.3761   -0.4966   -0.4693 O   0  0  0  0  0  0  0  0  0  0  0  0
   -2.2816    1.4449    0.2475 N   0  0  0  0  0  0  0  0  0  0  0  0
   -2.7093    0.7278    1.4243 C   0  0  1  0  0  0  0  0  0  0  0  0
   -2.9883    1.9678   -0.2512 H   0  0  0  0  0  0  0  0  0  0  0  0
   -1.9615    0.8042    2.2135 H   0  0  0  0  0  0  0  0  0  0  0  0
   -3.6349    1.1716    1.7848 H   0  0  0  0  0  0  0  0  0  0  0  0
   -2.8878   -0.3291    1.2108 H   0  0  0  0  0  0  0  0  0  0  0  0
   -0.7478   -1.6817   -0.2915 C   0  0  0  0  0  0  0  0  0  0  0  0
   -0.8247   -1.3300   -1.7537 C   0  0  1  0  0  0  0  0  0  0  0  0
   -1.0302   -2.7811    0.1387 O   0  0  0  0  0  0  0  0  0  0  0  0
   -1.1051   -0.2967   -1.9251 H   0  0  0  0  0  0  0  0  0  0  0  0
    0.1508   -1.5127   -2.2024 H   0  0  0  0  0  0  0  0  0  0  0  0
   -1.5416   -1.9925   -2.2320 H   0  0  0  0  0  0  0  0  0  0  0  0
    3.1657   -0.5969    1.8350 H   0  0  0  0  0  0  0  0  0  0  0  0
  1  2  1  0
  3  1  1  0
  3  4  1  1
  5  9  1  0
  5  3  1  0
  6 13  1  0
  6  3  1  0
  5  7  1  6
  8  5  1  0
  9 11  1  0
 10  6  2  0
 11 25  1  0
 12  9  2  0
 13 14  1  0
 14 17  1  1
 14 16  1  0
 15 13  1  0
 18 14  1  0
 19 21  2  0
 19  1  1  0
 20 19  1  0
 20 22  1  1
 23 20  1  0
 24 20  1  0
M  END
$$$$
