-43.25092892
     RDKit          3D

 25 24  0  0  1  0  0  0  0  0999 V2000
   -0.5798   -1.3123   -0.6767 N   0  0  0  0  0  0  0  0  0  0  0  0
   -0.5482   -1.3170   -1.6864 H   0  0  0  0  0  0  0  0  0  0  0  0
    0.3082   -0.4169    0.0186 C   0  0  1  0  0  0  0  0  0  0  0  0
    0.7661   -0.9402    0.8694 H   0  0  0  0  0  0  0  0  0  0  0  0
    1.4439    0.0420   -0.9117 C   0  0  2  0  0  0  0  0  0  0  0  0
   -0.3752    0.8234    0.6308 C   0  0  0  0  0  0  0  0  0  0  0  0
    1.0532    0.6287   -1.7429 H   0  0  0  0  0  0  0  0  0  0  0  0
    1.9761   -0.8345   -1.2831 H   0  0  0  0  0  0  0  0  0  0  0  0
    2.4047    0.9001   -0.1109 C   0  0  0  0  0  0  0  0  0  0  0  0
   -0.0186    1.2309    1.7191 O   0  0  0  0  0  0  0  0  0  0  0  0
    2.1249    2.1971   -0.2482 O   0  0  0  0  0  0  0  0  0  0  0  0
    3.2978    0.4811    0.5674 O   0  0  0  0  0  0  0  0  0  0  0  0
   -1.3407    1.4571   -0.0588 N   0  0  0  0  0  0  0  0  0  0  0  0
   -1.9287    1.1578   -1.3436 C   0  0  1  0  0  0  0  0  0  0  0  0
   -1.7258    2.2477    0.4398 H   0  0  0  0  0  0  0  0  0  0  0  0
   -2.5744    0.2775   -1.2983 H   0  0  0  0  0  0  0  0  0  0  0  0
   -2.5300    2.0101   -1.6522 H   0  0  0  0  0  0  0  0  0  0  0  0
   -1.1606    0.9956   -2.0997 H   0  0  0  0  0  0  0  0  0  0  0  0
   -1.5523   -2.0921   -0.1331 C   0  0  0  0  0  0  0  0  0  0  0  0
   -1.6106   -2.1225    1.3723 C   0  0  1  0  0  0  0  0  0  0  0  0
   -2.3033   -2.7150   -0.8537 O   0  0  0  0  0  0  0  0  0  0  0  0
   -0.7064   -2.5833    1.7654 H   0  0  0  0  0  0  0  0  0  0  0  0
   -1.6885   -1.1181    1.7812 H   0  0  0  0  0  0  0  0  0  0  0  0
   -2.4706   -2.7105    1.6794 H   0  0  0  0  0  0  0  0  0  0  0  0
    2.6875    2.7327    0.3337 H   0  0  0  0  0  0  0  0  0  0  0  0
  1 19  1  0
  1  3  1  0
  2  1  1  0
  3  6  1  0
  3  4  1  1
  5  9  1  0
  5  3  1  0
  6 10  2  0
  5  7  1  6
  8  5  1  0
  9 12  2  0
 11  9  1  0
 11 25  1  0
 13 15  1  0
 13  6  1  0
 14 16  1  1
 14 13  1  0
 17 14  1  0
 18 14  1  0
 19 20  1  0
 20 24  1  6
 20 22  1  0
 20 23  1  0
 21 19  2  0
M  END
$$$$
