-43.24966819
     RDKit          3D

 25 24  0  0  1  0  0  0  0  0999 V2000
   -0.7947   -1.0851    0.9210 N   0  0  0  0  0  0  0  0  0  0  0  0
   -1.0127   -1.5535    1.7913 H   0  0  0  0  0  0  0  0  0  0  0  0
   -0.1494    0.1997    1.0651 C   0  0  1  0  0  0  0  0  0  0  0  0
   -0.5494    0.6326    1.9926 H   0  0  0  0  0  0  0  0  0  0  0  0
    1.3877    0.1162    1.2329 C   0  0  2  0  0  0  0  0  0  0  0  0
   -0.5066    1.1966   -0.0436 C   0  0  0  0  0  0  0  0  0  0  0  0
    1.6460   -0.8924    1.5605 H   0  0  0  0  0  0  0  0  0  0  0  0
    1.7114    0.8353    1.9847 H   0  0  0  0  0  0  0  0  0  0  0  0
    2.1880    0.4087   -0.0270 C   0  0  0  0  0  0  0  0  0  0  0  0
    0.3483    1.7683   -0.6905 O   0  0  0  0  0  0  0  0  0  0  0  0
    2.9837    1.4642    0.1486 O   0  0  0  0  0  0  0  0  0  0  0  0
    2.2360   -0.2911   -1.0041 O   0  0  0  0  0  0  0  0  0  0  0  0
   -1.8127    1.4684   -0.2145 N   0  0  0  0  0  0  0  0  0  0  0  0
   -2.9490    0.8854    0.4575 C   0  0  1  0  0  0  0  0  0  0  0  0
   -2.0052    2.1224   -0.9607 H   0  0  0  0  0  0  0  0  0  0  0  0
   -3.8171    1.5178    0.2857 H   0  0  0  0  0  0  0  0  0  0  0  0
   -3.1675   -0.1195    0.0876 H   0  0  0  0  0  0  0  0  0  0  0  0
   -2.7721    0.8264    1.5313 H   0  0  0  0  0  0  0  0  0  0  0  0
   -1.0076   -1.9007   -0.1565 C   0  0  0  0  0  0  0  0  0  0  0  0
   -0.6341   -1.3965   -1.5183 C   0  0  1  0  0  0  0  0  0  0  0  0
   -1.5187   -2.9836    0.0415 O   0  0  0  0  0  0  0  0  0  0  0  0
   -0.7698   -2.2054   -2.2310 H   0  0  0  0  0  0  0  0  0  0  0  0
   -1.2651   -0.5612   -1.8116 H   0  0  0  0  0  0  0  0  0  0  0  0
    0.4033   -1.0704   -1.5332 H   0  0  0  0  0  0  0  0  0  0  0  0
    3.4676    1.6561   -0.6695 H   0  0  0  0  0  0  0  0  0  0  0  0
  1  3  1  0
  1  2  1  0
  3  5  1  0
  3  4  1  1
  5  7  1  1
  5  8  1  0
  6  3  1  0
  9 11  1  0
  9  5  1  0
 10  6  2  0
 12  9  2  0
 13  6  1  0
 13 14  1  0
 14 18  1  1
 15 13  1  0
 16 14  1  0
 17 14  1  0
 19 21  2  0
 19  1  1  0
 20 19  1  0
 20 22  1  6
 23 20  1  0
 24 20  1  0
 25 11  1  0
M  END
$$$$
