-43.24868891
     RDKit          3D

 25 24  0  0  1  0  0  0  0  0999 V2000
   -0.1967   -1.2104   -0.0688 N   0  0  0  0  0  0  0  0  0  0  0  0
    0.4126   -1.2571   -0.8736 H   0  0  0  0  0  0  0  0  0  0  0  0
    0.0624   -0.1573    0.8719 C   0  0  1  0  0  0  0  0  0  0  0  0
   -0.3018   -0.4758    1.8568 H   0  0  0  0  0  0  0  0  0  0  0  0
    1.5720    0.0890    1.0360 C   0  0  2  0  0  0  0  0  0  0  0  0
   -0.6205    1.2084    0.6416 C   0  0  0  0  0  0  0  0  0  0  0  0
    2.0757   -0.8627    1.2267 H   0  0  0  0  0  0  0  0  0  0  0  0
    1.7341    0.7339    1.9016 H   0  0  0  0  0  0  0  0  0  0  0  0
    2.2753    0.7401   -0.1310 C   0  0  0  0  0  0  0  0  0  0  0  0
   -0.5254    2.0444    1.5212 O   0  0  0  0  0  0  0  0  0  0  0  0
    1.6588    0.5586   -1.3120 O   0  0  0  0  0  0  0  0  0  0  0  0
    3.3072    1.3428   -0.0448 O   0  0  0  0  0  0  0  0  0  0  0  0
   -1.3242    1.4802   -0.4715 N   0  0  0  0  0  0  0  0  0  0  0  0
   -1.5570    0.7256   -1.6829 C   0  0  1  0  0  0  0  0  0  0  0  0
   -1.7170    2.4121   -0.4462 H   0  0  0  0  0  0  0  0  0  0  0  0
   -2.0631    1.3744   -2.3942 H   0  0  0  0  0  0  0  0  0  0  0  0
   -0.6187    0.3943   -2.1254 H   0  0  0  0  0  0  0  0  0  0  0  0
   -2.1895   -0.1454   -1.5034 H   0  0  0  0  0  0  0  0  0  0  0  0
   -1.2309   -2.0882   -0.0775 C   0  0  0  0  0  0  0  0  0  0  0  0
   -2.1898   -2.0103    1.0881 C   0  0  1  0  0  0  0  0  0  0  0  0
   -1.3516   -2.8832   -0.9862 O   0  0  0  0  0  0  0  0  0  0  0  0
   -1.6833   -2.2920    2.0091 H   0  0  0  0  0  0  0  0  0  0  0  0
   -2.5870   -1.0039    1.1992 H   0  0  0  0  0  0  0  0  0  0  0  0
   -3.0055   -2.7055    0.9113 H   0  0  0  0  0  0  0  0  0  0  0  0
    2.1645    0.9965   -2.0159 H   0  0  0  0  0  0  0  0  0  0  0  0
  1  3  1  0
  2  1  1  0
  3  5  1  0
  3  4  1  1
  5  7  1  1
  5  8  1  0
  6  3  1  0
  6 10  2  0
  9 12  2  0
  9  5  1  0
 11  9  1  0
 13 15  1  0
 13  6  1  0
 14 18  1  1
 14 13  1  0
 16 14  1  0
 17 14  1  0
 19  1  1  0
 19 20  1  0
 20 23  1  1
 20 22  1  0
 21 19  2  0
 24 20  1  0
 25 11  1  0
M  END
$$$$
