-43.24829267
     RDKit          3D

 25 24  0  0  1  0  0  0  0  0999 V2000
   -0.6032   -1.1599   -0.6535 N   0  0  0  0  0  0  0  0  0  0  0  0
   -0.6030   -1.1920   -1.6634 H   0  0  0  0  0  0  0  0  0  0  0  0
    0.2053   -0.1598   -0.0091 C   0  0  1  0  0  0  0  0  0  0  0  0
    0.6964   -0.6204    0.8609 H   0  0  0  0  0  0  0  0  0  0  0  0
    1.2986    0.3643   -0.9573 C   0  0  2  0  0  0  0  0  0  0  0  0
   -0.5649    1.0477    0.5473 C   0  0  0  0  0  0  0  0  0  0  0  0
    0.9501    1.2423   -1.5089 H   0  0  0  0  0  0  0  0  0  0  0  0
    1.5548   -0.4083   -1.6845 H   0  0  0  0  0  0  0  0  0  0  0  0
    2.6182    0.7513   -0.2624 C   0  0  0  0  0  0  0  0  0  0  0  0
   -0.0437    1.6995    1.4492 O   0  0  0  0  0  0  0  0  0  0  0  0
    2.5378    1.3305    0.9200 O   0  0  0  0  0  0  0  0  0  0  0  0
    3.6689    0.5318   -0.7968 O   0  0  0  0  0  0  0  0  0  0  0  0
   -1.7483    1.4191    0.0529 N   0  0  0  0  0  0  0  0  0  0  0  0
   -2.5050    0.9109   -1.0697 C   0  0  1  0  0  0  0  0  0  0  0  0
   -2.1347    2.2262    0.5264 H   0  0  0  0  0  0  0  0  0  0  0  0
   -2.9630   -0.0545   -0.8481 H   0  0  0  0  0  0  0  0  0  0  0  0
   -3.2952    1.6225   -1.2971 H   0  0  0  0  0  0  0  0  0  0  0  0
   -1.8726    0.8091   -1.9515 H   0  0  0  0  0  0  0  0  0  0  0  0
   -1.4246   -2.0652   -0.0545 C   0  0  0  0  0  0  0  0  0  0  0  0
   -1.4197   -2.0712    1.4540 C   0  0  1  0  0  0  0  0  0  0  0  0
   -2.1101   -2.8017   -0.7292 O   0  0  0  0  0  0  0  0  0  0  0  0
   -0.4489   -2.4014    1.8190 H   0  0  0  0  0  0  0  0  0  0  0  0
   -1.6230   -1.0797    1.8525 H   0  0  0  0  0  0  0  0  0  0  0  0
   -2.1791   -2.7654    1.8018 H   0  0  0  0  0  0  0  0  0  0  0  0
    1.6163    1.5148    1.2463 H   0  0  0  0  0  0  0  0  0  0  0  0
  1 19  1  0
  1  3  1  0
  2  1  1  0
  3  6  1  0
  3  4  1  1
  5  9  1  0
  5  3  1  0
  6 10  2  0
  5  7  1  6
  8  5  1  0
  9 11  1  0
 11 25  1  0
 12  9  2  0
 13 15  1  0
 13  6  1  0
 14 16  1  1
 14 13  1  0
 17 14  1  0
 18 14  1  0
 19 20  1  0
 20 24  1  1
 20 22  1  0
 20 23  1  0
 21 19  2  0
M  END
$$$$
