-43.24656614
     RDKit          3D

 25 24  0  0  1  0  0  0  0  0999 V2000
   -0.5253   -1.1095    0.2063 N   0  0  0  0  0  0  0  0  0  0  0  0
   -0.8507   -1.6376    1.0048 H   0  0  0  0  0  0  0  0  0  0  0  0
   -0.3488    0.3067    0.4464 C   0  0  1  0  0  0  0  0  0  0  0  0
   -0.3974    0.4289    1.5316 H   0  0  0  0  0  0  0  0  0  0  0  0
    1.0250    0.8400   -0.0124 C   0  0  2  0  0  0  0  0  0  0  0  0
   -1.4486    1.1642   -0.2058 C   0  0  0  0  0  0  0  0  0  0  0  0
    1.1193    1.8810    0.3018 H   0  0  0  0  0  0  0  0  0  0  0  0
    1.1363    0.7807   -1.0911 H   0  0  0  0  0  0  0  0  0  0  0  0
    2.1091    0.0325    0.6675 C   0  0  0  0  0  0  0  0  0  0  0  0
   -1.9104    0.9276   -1.3013 O   0  0  0  0  0  0  0  0  0  0  0  0
    2.8880   -0.5978   -0.2102 O   0  0  0  0  0  0  0  0  0  0  0  0
    2.2530   -0.0490    1.8568 O   0  0  0  0  0  0  0  0  0  0  0  0
   -1.8575    2.2408    0.4986 N   0  0  0  0  0  0  0  0  0  0  0  0
   -1.4972    2.6434    1.8382 C   0  0  1  0  0  0  0  0  0  0  0  0
   -2.5971    2.7625    0.0488 H   0  0  0  0  0  0  0  0  0  0  0  0
   -1.9153    3.6292    2.0269 H   0  0  0  0  0  0  0  0  0  0  0  0
   -1.8952    1.9529    2.5873 H   0  0  0  0  0  0  0  0  0  0  0  0
   -0.4150    2.7046    1.9573 H   0  0  0  0  0  0  0  0  0  0  0  0
   -0.4033   -1.9108   -0.8929 C   0  0  0  0  0  0  0  0  0  0  0  0
    0.0389   -1.3047   -2.1960 C   0  0  1  0  0  0  0  0  0  0  0  0
   -0.6363   -3.0947   -0.7626 O   0  0  0  0  0  0  0  0  0  0  0  0
   -0.4909   -0.3765   -2.3846 H   0  0  0  0  0  0  0  0  0  0  0  0
    1.1134   -1.1338   -2.1751 H   0  0  0  0  0  0  0  0  0  0  0  0
   -0.1789   -2.0163   -2.9880 H   0  0  0  0  0  0  0  0  0  0  0  0
    3.5564   -1.1398    0.2394 H   0  0  0  0  0  0  0  0  0  0  0  0
  1  3  1  0
  1  2  1  0
  3  4  1  1
  5  7  1  1
  5  3  1  0
  5  9  1  0
  6  3  1  0
  6 13  1  0
  8  5  1  0
  9 12  2  0
 10  6  2  0
 11 25  1  0
 11  9  1  0
 13 14  1  0
 14 18  1  6
 14 16  1  0
 14 17  1  0
 15 13  1  0
 19 21  2  0
 19  1  1  0
 20 23  1  1
 20 19  1  0
 22 20  1  0
 24 20  1  0
M  END
$$$$
