-43.24633309
     RDKit          3D

 25 24  0  0  1  0  0  0  0  0999 V2000
   -0.3178   -0.6522   -0.9795 N   0  0  0  0  0  0  0  0  0  0  0  0
   -0.5833   -0.2863   -1.8913 H   0  0  0  0  0  0  0  0  0  0  0  0
   -0.2951    0.3606    0.0442 C   0  0  1  0  0  0  0  0  0  0  0  0
   -0.5026   -0.0791    1.0203 H   0  0  0  0  0  0  0  0  0  0  0  0
    1.0795    1.0754    0.0672 C   0  0  2  0  0  0  0  0  0  0  0  0
   -1.3484    1.4230   -0.3176 C   0  0  0  0  0  0  0  0  0  0  0  0
    1.0446    1.9358    0.7352 H   0  0  0  0  0  0  0  0  0  0  0  0
    1.3131    1.4193   -0.9426 H   0  0  0  0  0  0  0  0  0  0  0  0
    2.1449    0.1165    0.5729 C   0  0  0  0  0  0  0  0  0  0  0  0
   -1.6497    1.6210   -1.4762 O   0  0  0  0  0  0  0  0  0  0  0  0
    2.5476   -0.8066   -0.3053 O   0  0  0  0  0  0  0  0  0  0  0  0
    2.5775    0.1521    1.6890 O   0  0  0  0  0  0  0  0  0  0  0  0
   -1.8690    2.1389    0.6932 N   0  0  0  0  0  0  0  0  0  0  0  0
   -1.6817    1.9484    2.1131 C   0  0  1  0  0  0  0  0  0  0  0  0
   -2.5699    2.8097    0.4093 H   0  0  0  0  0  0  0  0  0  0  0  0
   -2.2167    1.0643    2.4723 H   0  0  0  0  0  0  0  0  0  0  0  0
   -0.6261    1.8463    2.3626 H   0  0  0  0  0  0  0  0  0  0  0  0
   -2.0719    2.8193    2.6342 H   0  0  0  0  0  0  0  0  0  0  0  0
   -0.4449   -2.0058   -0.8444 C   0  0  0  0  0  0  0  0  0  0  0  0
   -0.2805   -2.5671    0.5485 C   0  0  1  0  0  0  0  0  0  0  0  0
   -0.6312   -2.6947   -1.8210 O   0  0  0  0  0  0  0  0  0  0  0  0
    0.6394   -2.2188    1.0114 H   0  0  0  0  0  0  0  0  0  0  0  0
   -1.1262   -2.2799    1.1711 H   0  0  0  0  0  0  0  0  0  0  0  0
   -0.2553   -3.6506    0.4769 H   0  0  0  0  0  0  0  0  0  0  0  0
    2.0416   -0.7904   -1.1319 H   0  0  0  0  0  0  0  0  0  0  0  0
  1 19  1  0
  1  3  1  0
  2  1  1  0
  3  5  1  0
  3  4  1  1
  5  9  1  0
  5  7  1  1
  6  3  1  0
  6 13  1  0
  8  5  1  0
  9 12  2  0
 10  6  2  0
 11  9  1  0
 13 14  1  0
 14 17  1  6
 14 16  1  0
 14 18  1  0
 15 13  1  0
 19 20  1  0
 20 22  1  1
 20 23  1  0
 21 19  2  0
 24 20  1  0
 25 11  1  0
M  END
$$$$
