-43.25283124
     RDKit          3D

 25 24  0  0  1  0  0  0  0  0999 V2000
   -0.4801   -0.8994   -0.4426 N   0  0  0  0  0  0  0  0  0  0  0  0
   -0.0759   -0.6388   -1.3341 H   0  0  0  0  0  0  0  0  0  0  0  0
   -0.1674   -0.0057    0.6467 C   0  0  1  0  0  0  0  0  0  0  0  0
   -0.7845   -0.2686    1.5103 H   0  0  0  0  0  0  0  0  0  0  0  0
    1.3152   -0.0662    1.0502 C   0  0  2  0  0  0  0  0  0  0  0  0
   -0.5017    1.4341    0.2188 C   0  0  0  0  0  0  0  0  0  0  0  0
    1.6350   -1.1096    1.0964 H   0  0  0  0  0  0  0  0  0  0  0  0
    1.4618    0.3934    2.0275 H   0  0  0  0  0  0  0  0  0  0  0  0
    2.2323    0.6498    0.0758 C   0  0  0  0  0  0  0  0  0  0  0  0
    0.3641    2.2662    0.0400 O   0  0  0  0  0  0  0  0  0  0  0  0
    1.9511    0.3608   -1.2057 O   0  0  0  0  0  0  0  0  0  0  0  0
    3.1819    1.3048    0.3983 O   0  0  0  0  0  0  0  0  0  0  0  0
   -1.8026    1.7184    0.0358 N   0  0  0  0  0  0  0  0  0  0  0  0
   -2.9362    0.8478    0.2359 C   0  0  1  0  0  0  0  0  0  0  0  0
   -1.9874    2.6707   -0.2459 H   0  0  0  0  0  0  0  0  0  0  0  0
   -3.0614    0.5997    1.2938 H   0  0  0  0  0  0  0  0  0  0  0  0
   -3.8336    1.3580   -0.1037 H   0  0  0  0  0  0  0  0  0  0  0  0
   -2.8237   -0.0745   -0.3352 H   0  0  0  0  0  0  0  0  0  0  0  0
   -0.9337   -2.1797   -0.3784 C   0  0  0  0  0  0  0  0  0  0  0  0
   -1.3598   -2.6849    0.9833 C   0  0  1  0  0  0  0  0  0  0  0  0
   -1.0207   -2.8492   -1.3842 O   0  0  0  0  0  0  0  0  0  0  0  0
   -0.5285   -2.6496    1.6833 H   0  0  0  0  0  0  0  0  0  0  0  0
   -2.1825   -2.0918    1.3765 H   0  0  0  0  0  0  0  0  0  0  0  0
   -1.6899   -3.7141    0.8748 H   0  0  0  0  0  0  0  0  0  0  0  0
    2.5554    0.8489   -1.7857 H   0  0  0  0  0  0  0  0  0  0  0  0
  1 19  1  0
  1  3  1  0
  2  1  1  0
  3  5  1  0
  3  4  1  1
  5  7  1  1
  5  8  1  0
  6  3  1  0
  9 12  2  0
  9  5  1  0
 10  6  2  0
 11  9  1  0
 13  6  1  0
 13 14  1  0
 14 16  1  1
 15 13  1  0
 17 14  1  0
 18 14  1  0
 19 20  1  0
 20 23  1  1
 20 22  1  0
 21 19  2  0
 24 20  1  0
 25 11  1  0
M  END
$$$$
