-42.45018704
     RDKit          3D

 26 26  0  0  1  0  0  0  0  0999 V2000
    1.7049   -1.4331   -1.0818 C   0  0  1  0  0  0  0  0  0  0  0  0
    1.4978   -0.0001   -0.5743 C   0  0  1  0  0  0  0  0  0  0  0  0
    0.3148    0.1159    0.3973 C   0  0  2  0  0  0  0  0  0  0  0  0
   -1.0882   -0.0419   -0.2402 C   0  0  2  0  0  0  0  0  0  0  0  0
   -1.7367    1.3454   -0.0252 C   0  0  2  0  0  0  0  0  0  0  0  0
   -1.5884    2.1867   -1.1339 O   0  0  0  0  0  0  0  0  0  0  0  0
   -0.9618    1.8500    1.1941 C   0  0  1  0  0  0  0  0  0  0  0  0
    1.8839   -2.3322   -0.0216 O   0  0  0  0  0  0  0  0  0  0  0  0
   -1.8774   -1.0006    0.4130 O   0  0  0  0  0  0  0  0  0  0  0  0
    2.6884    0.3688    0.0848 O   0  0  0  0  0  0  0  0  0  0  0  0
    0.3651    1.4261    0.9617 O   0  0  0  0  0  0  0  0  0  0  0  0
   -1.5950   -2.3369    0.0552 C   0  0  1  0  0  0  0  0  0  0  0  0
    0.8357   -1.7743   -1.6455 H   0  0  0  0  0  0  0  0  0  0  0  0
    2.5817   -1.4325   -1.7429 H   0  0  0  0  0  0  0  0  0  0  0  0
    1.3219    0.6663   -1.4360 H   0  0  0  0  0  0  0  0  0  0  0  0
    0.4281   -0.6262    1.2009 H   0  0  0  0  0  0  0  0  0  0  0  0
   -1.0184   -0.2639   -1.3151 H   0  0  0  0  0  0  0  0  0  0  0  0
   -2.8063    1.2424    0.1559 H   0  0  0  0  0  0  0  0  0  0  0  0
   -0.6565    2.4296   -1.2078 H   0  0  0  0  0  0  0  0  0  0  0  0
   -0.9564    2.9364    1.2822 H   0  0  0  0  0  0  0  0  0  0  0  0
   -1.3589    1.3961    2.1101 H   0  0  0  0  0  0  0  0  0  0  0  0
    2.6098   -1.9873    0.5152 H   0  0  0  0  0  0  0  0  0  0  0  0
    2.4937    1.1466    0.6226 H   0  0  0  0  0  0  0  0  0  0  0  0
   -1.7715   -2.4973   -1.0150 H   0  0  0  0  0  0  0  0  0  0  0  0
   -0.5658   -2.6190    0.2951 H   0  0  0  0  0  0  0  0  0  0  0  0
   -2.2845   -2.9503    0.6311 H   0  0  0  0  0  0  0  0  0  0  0  0
  1  2  1  0
  1  8  1  0
  2 15  1  6
  2 10  1  0
  2  3  1  0
  3  4  1  0
  3 11  1  0
  3 16  1  1
  4  5  1  0
  4  9  1  0
  5 18  1  1
  5  7  1  0
  6  5  1  0
  7 20  1  1
  7 21  1  0
  8 22  1  0
 10 23  1  0
 11  7  1  0
 12 25  1  1
 12  9  1  0
 12 26  1  0
  1 13  1  6
 14  1  1  0
  4 17  1  6
 19  6  1  0
 24 12  1  0
M  END
$$$$
