-42.44992898
     RDKit          3D

 26 26  0  0  1  0  0  0  0  0999 V2000
    2.6853   -1.1173   -0.3077 C   0  0  1  0  0  0  0  0  0  0  0  0
    1.3342   -0.5888   -0.8391 C   0  0  1  0  0  0  0  0  0  0  0  0
    0.2822   -0.5003    0.2872 C   0  0  2  0  0  0  0  0  0  0  0  0
   -1.1580   -0.3401   -0.2326 C   0  0  2  0  0  0  0  0  0  0  0  0
   -1.4423    1.1648   -0.0264 C   0  0  2  0  0  0  0  0  0  0  0  0
   -1.1128    1.9238   -1.1520 O   0  0  0  0  0  0  0  0  0  0  0  0
   -0.5672    1.4645    1.1974 C   0  0  1  0  0  0  0  0  0  0  0  0
    2.8939   -0.9316    1.0670 O   0  0  0  0  0  0  0  0  0  0  0  0
   -1.9931   -1.1774    0.5289 O   0  0  0  0  0  0  0  0  0  0  0  0
    1.4787    0.6840   -1.4356 O   0  0  0  0  0  0  0  0  0  0  0  0
    0.5939    0.6692    1.0458 O   0  0  0  0  0  0  0  0  0  0  0  0
   -3.2554   -1.4181   -0.0468 C   0  0  1  0  0  0  0  0  0  0  0  0
    2.7510   -2.1951   -0.4759 H   0  0  0  0  0  0  0  0  0  0  0  0
    3.4829   -0.6291   -0.8896 H   0  0  0  0  0  0  0  0  0  0  0  0
    0.9807   -1.2456   -1.6376 H   0  0  0  0  0  0  0  0  0  0  0  0
    0.3313   -1.3860    0.9308 H   0  0  0  0  0  0  0  0  0  0  0  0
   -1.2342   -0.5946   -1.2996 H   0  0  0  0  0  0  0  0  0  0  0  0
   -2.4957    1.3602    0.1822 H   0  0  0  0  0  0  0  0  0  0  0  0
   -0.2310    1.6520   -1.4657 H   0  0  0  0  0  0  0  0  0  0  0  0
   -0.2578    2.5095    1.2473 H   0  0  0  0  0  0  0  0  0  0  0  0
   -1.0964    1.1845    2.1157 H   0  0  0  0  0  0  0  0  0  0  0  0
    2.5054   -0.0922    1.3452 H   0  0  0  0  0  0  0  0  0  0  0  0
    1.7680    1.2898   -0.7361 H   0  0  0  0  0  0  0  0  0  0  0  0
   -3.8412   -0.4991   -0.1508 H   0  0  0  0  0  0  0  0  0  0  0  0
   -3.1531   -1.8850   -1.0334 H   0  0  0  0  0  0  0  0  0  0  0  0
   -3.7685   -2.0998    0.6280 H   0  0  0  0  0  0  0  0  0  0  0  0
  1  8  1  0
  2 15  1  6
  2  1  1  0
  2  3  1  0
  3  4  1  0
  3 16  1  1
  3 11  1  0
  4  5  1  0
  4  9  1  0
  5 18  1  1
  5  7  1  0
  6  5  1  0
  7 20  1  1
  7 21  1  0
  8 22  1  0
 10  2  1  0
 10 23  1  0
 11  7  1  0
 12  9  1  0
 12 26  1  1
  1 13  1  1
 14  1  1  0
  4 17  1  6
 19  6  1  0
 24 12  1  0
 25 12  1  0
M  END
$$$$
