-42.44977584
     RDKit          3D

 26 26  0  0  1  0  0  0  0  0999 V2000
    2.3879   -0.1663   -0.4753 C   0  0  1  0  0  0  0  0  0  0  0  0
    1.5672   -1.0426    0.4993 C   0  0  1  0  0  0  0  0  0  0  0  0
    0.3091   -0.3359    1.0067 C   0  0  2  0  0  0  0  0  0  0  0  0
   -0.6790    0.0475   -0.1104 C   0  0  2  0  0  0  0  0  0  0  0  0
   -1.4298    1.2617    0.4920 C   0  0  2  0  0  0  0  0  0  0  0  0
   -1.5502    2.3403   -0.3926 O   0  0  0  0  0  0  0  0  0  0  0  0
   -0.6025    1.5871    1.7588 C   0  0  1  0  0  0  0  0  0  0  0  0
    1.8796   -0.2257   -1.7845 O   0  0  0  0  0  0  0  0  0  0  0  0
   -1.4751   -1.0730   -0.4189 O   0  0  0  0  0  0  0  0  0  0  0  0
    1.2137   -2.2556   -0.1311 O   0  0  0  0  0  0  0  0  0  0  0  0
    0.6161    0.8752    1.6542 O   0  0  0  0  0  0  0  0  0  0  0  0
   -2.2671   -0.9003   -1.5755 C   0  0  1  0  0  0  0  0  0  0  0  0
    2.3494    0.8744   -0.1515 H   0  0  0  0  0  0  0  0  0  0  0  0
    3.4315   -0.5058   -0.4635 H   0  0  0  0  0  0  0  0  0  0  0  0
    2.2012   -1.2826    1.3612 H   0  0  0  0  0  0  0  0  0  0  0  0
   -0.2214   -1.0171    1.6960 H   0  0  0  0  0  0  0  0  0  0  0  0
   -0.1378    0.3809   -1.0090 H   0  0  0  0  0  0  0  0  0  0  0  0
   -2.4542    0.9848    0.7531 H   0  0  0  0  0  0  0  0  0  0  0  0
   -0.6689    2.6288   -0.6613 H   0  0  0  0  0  0  0  0  0  0  0  0
   -0.3676    2.6500    1.8333 H   0  0  0  0  0  0  0  0  0  0  0  0
   -1.1431    1.2711    2.6602 H   0  0  0  0  0  0  0  0  0  0  0  0
    1.8033   -1.1662   -2.0018 H   0  0  0  0  0  0  0  0  0  0  0  0
    0.2788   -2.2086   -0.3809 H   0  0  0  0  0  0  0  0  0  0  0  0
   -2.8254   -1.8253   -1.7026 H   0  0  0  0  0  0  0  0  0  0  0  0
   -2.9602   -0.0626   -1.4630 H   0  0  0  0  0  0  0  0  0  0  0  0
   -1.6362   -0.7225   -2.4539 H   0  0  0  0  0  0  0  0  0  0  0  0
  1 14  1  6
  1 13  1  0
  1  2  1  0
  2  3  1  0
  2 15  1  1
  3  4  1  0
  3 11  1  0
  3 16  1  1
  4  5  1  0
  5 18  1  1
  5  7  1  0
  6  5  1  0
  7 20  1  1
  7 21  1  0
  8  1  1  0
  9  4  1  0
 10  2  1  0
 11  7  1  0
 12 25  1  1
 12  9  1  0
  4 17  1  6
 19  6  1  0
 22  8  1  0
 23 10  1  0
 24 12  1  0
 26 12  1  0
M  END
$$$$
