-42.44940946
     RDKit          3D

 26 26  0  0  1  0  0  0  0  0999 V2000
    1.7402   -1.6482   -0.4884 C   0  0  1  0  0  0  0  0  0  0  0  0
    1.6043   -0.1581   -0.1553 C   0  0  1  0  0  0  0  0  0  0  0  0
    0.3219    0.1401    0.6214 C   0  0  2  0  0  0  0  0  0  0  0  0
   -0.9827   -0.0774   -0.1699 C   0  0  2  0  0  0  0  0  0  0  0  0
   -1.8338    1.1816    0.1645 C   0  0  2  0  0  0  0  0  0  0  0  0
   -2.0459    2.0056   -0.9484 O   0  0  0  0  0  0  0  0  0  0  0  0
   -1.0029    1.8626    1.2642 C   0  0  1  0  0  0  0  0  0  0  0  0
    2.8705   -1.8874   -1.2787 O   0  0  0  0  0  0  0  0  0  0  0  0
   -1.5615   -1.2865    0.2410 O   0  0  0  0  0  0  0  0  0  0  0  0
    2.7364    0.1977    0.6076 O   0  0  0  0  0  0  0  0  0  0  0  0
    0.3359    1.5083    0.9945 O   0  0  0  0  0  0  0  0  0  0  0  0
   -2.5485   -1.7789   -0.6377 C   0  0  1  0  0  0  0  0  0  0  0  0
    1.7943   -2.2090    0.4548 H   0  0  0  0  0  0  0  0  0  0  0  0
    0.8765   -1.9952   -1.0566 H   0  0  0  0  0  0  0  0  0  0  0  0
    1.5971    0.4252   -1.0921 H   0  0  0  0  0  0  0  0  0  0  0  0
    0.2762   -0.4938    1.5206 H   0  0  0  0  0  0  0  0  0  0  0  0
   -0.7875   -0.0960   -1.2540 H   0  0  0  0  0  0  0  0  0  0  0  0
   -2.8255    0.8980    0.5212 H   0  0  0  0  0  0  0  0  0  0  0  0
   -1.1986    2.3748   -1.2267 H   0  0  0  0  0  0  0  0  0  0  0  0
   -1.0785    2.9499    1.2383 H   0  0  0  0  0  0  0  0  0  0  0  0
   -1.3026    1.4904    2.2524 H   0  0  0  0  0  0  0  0  0  0  0  0
    3.6197   -1.4735   -0.8314 H   0  0  0  0  0  0  0  0  0  0  0  0
    2.5614    1.0581    1.0060 H   0  0  0  0  0  0  0  0  0  0  0  0
   -3.3791   -1.0752   -0.7505 H   0  0  0  0  0  0  0  0  0  0  0  0
   -2.1233   -1.9848   -1.6269 H   0  0  0  0  0  0  0  0  0  0  0  0
   -2.9107   -2.7044   -0.1961 H   0  0  0  0  0  0  0  0  0  0  0  0
  1  2  1  0
  1 13  1  1
  2 15  1  6
  2 10  1  0
  2  3  1  0
  3  4  1  0
  3 11  1  0
  3 16  1  1
  4  5  1  0
  4  9  1  0
  5 18  1  1
  5  7  1  0
  6  5  1  0
  7 21  1  1
  8 22  1  0
  8  1  1  0
 10 23  1  0
 11  7  1  0
 12 26  1  1
 12  9  1  0
 14  1  1  0
  4 17  1  6
 19  6  1  0
 20  7  1  0
 24 12  1  0
 25 12  1  0
M  END
$$$$
