-42.44900569
     RDKit          3D

 26 26  0  0  1  0  0  0  0  0999 V2000
    1.8075   -1.6059   -0.8328 C   0  0  1  0  0  0  0  0  0  0  0  0
    1.5634   -0.0983   -0.6667 C   0  0  1  0  0  0  0  0  0  0  0  0
    0.4434    0.1737    0.3427 C   0  0  2  0  0  0  0  0  0  0  0  0
   -0.9783   -0.1218   -0.1786 C   0  0  2  0  0  0  0  0  0  0  0  0
   -1.7744    1.1698    0.1635 C   0  0  2  0  0  0  0  0  0  0  0  0
   -2.0768    1.9337   -0.9722 O   0  0  0  0  0  0  0  0  0  0  0  0
   -0.8213    1.8910    1.1261 C   0  0  1  0  0  0  0  0  0  0  0  0
    2.3313   -2.1614    0.3382 O   0  0  0  0  0  0  0  0  0  0  0  0
   -1.4631   -1.2703    0.4624 O   0  0  0  0  0  0  0  0  0  0  0  0
    2.7741    0.4645   -0.2138 O   0  0  0  0  0  0  0  0  0  0  0  0
    0.4725    1.5551    0.6759 O   0  0  0  0  0  0  0  0  0  0  0  0
   -2.5725   -1.8629   -0.1715 C   0  0  1  0  0  0  0  0  0  0  0  0
    0.8691   -2.1225   -1.0393 H   0  0  0  0  0  0  0  0  0  0  0  0
    2.4986   -1.7544   -1.6750 H   0  0  0  0  0  0  0  0  0  0  0  0
    1.2882    0.3437   -1.6392 H   0  0  0  0  0  0  0  0  0  0  0  0
    0.6045   -0.4370    1.2434 H   0  0  0  0  0  0  0  0  0  0  0  0
   -0.9803   -0.2642   -1.2713 H   0  0  0  0  0  0  0  0  0  0  0  0
   -2.7303    0.9312    0.6323 H   0  0  0  0  0  0  0  0  0  0  0  0
   -1.2534    2.2846   -1.3335 H   0  0  0  0  0  0  0  0  0  0  0  0
   -0.9217    2.9760    1.0907 H   0  0  0  0  0  0  0  0  0  0  0  0
   -0.9741    1.5322    2.1519 H   0  0  0  0  0  0  0  0  0  0  0  0
    3.0531   -1.5809    0.6178 H   0  0  0  0  0  0  0  0  0  0  0  0
    2.5658    1.3200    0.1812 H   0  0  0  0  0  0  0  0  0  0  0  0
   -2.3211   -2.1732   -1.1927 H   0  0  0  0  0  0  0  0  0  0  0  0
   -2.8269   -2.7374    0.4229 H   0  0  0  0  0  0  0  0  0  0  0  0
   -3.4303   -1.1837   -0.2118 H   0  0  0  0  0  0  0  0  0  0  0  0
  1  2  1  0
  1  8  1  0
  2 15  1  6
  2 10  1  0
  2  3  1  0
  3  4  1  0
  3 11  1  0
  3 16  1  1
  4  5  1  0
  4  9  1  0
  5 18  1  1
  5  7  1  0
  6  5  1  0
  7 21  1  1
  8 22  1  0
 10 23  1  0
 11  7  1  0
 12 25  1  1
 12  9  1  0
  1 13  1  6
 14  1  1  0
  4 17  1  6
 19  6  1  0
 20  7  1  0
 24 12  1  0
 26 12  1  0
M  END
$$$$
