-42.44750754
     RDKit          3D

 26 26  0  0  1  0  0  0  0  0999 V2000
    2.1172    0.1982   -0.4777 C   0  0  1  0  0  0  0  0  0  0  0  0
    1.3069   -0.9379    0.1638 C   0  0  1  0  0  0  0  0  0  0  0  0
   -0.0186   -0.4571    0.7659 C   0  0  2  0  0  0  0  0  0  0  0  0
   -1.0660    0.0830   -0.2468 C   0  0  2  0  0  0  0  0  0  0  0  0
   -1.3639    1.5090    0.2709 C   0  0  2  0  0  0  0  0  0  0  0  0
   -0.6721    2.5013   -0.4349 O   0  0  0  0  0  0  0  0  0  0  0  0
   -0.9057    1.4064    1.7296 C   0  0  1  0  0  0  0  0  0  0  0  0
    3.2901   -0.3140   -1.0677 O   0  0  0  0  0  0  0  0  0  0  0  0
   -2.2557   -0.6627   -0.2239 O   0  0  0  0  0  0  0  0  0  0  0  0
    1.0419   -1.9414   -0.7857 O   0  0  0  0  0  0  0  0  0  0  0  0
    0.2508    0.5942    1.6786 O   0  0  0  0  0  0  0  0  0  0  0  0
   -2.2090   -1.8321   -1.0134 C   0  0  1  0  0  0  0  0  0  0  0  0
    1.5559    0.6478   -1.3002 H   0  0  0  0  0  0  0  0  0  0  0  0
    2.3424    0.9602    0.2765 H   0  0  0  0  0  0  0  0  0  0  0  0
    1.9098   -1.3592    0.9889 H   0  0  0  0  0  0  0  0  0  0  0  0
   -0.4851   -1.3008    1.2980 H   0  0  0  0  0  0  0  0  0  0  0  0
   -0.6641    0.1189   -1.2671 H   0  0  0  0  0  0  0  0  0  0  0  0
   -2.4260    1.7329    0.1700 H   0  0  0  0  0  0  0  0  0  0  0  0
    0.2650    2.4339   -0.2131 H   0  0  0  0  0  0  0  0  0  0  0  0
   -0.6234    2.3667    2.1608 H   0  0  0  0  0  0  0  0  0  0  0  0
   -1.6850    0.9317    2.3384 H   0  0  0  0  0  0  0  0  0  0  0  0
    3.8780   -0.6345   -0.3738 H   0  0  0  0  0  0  0  0  0  0  0  0
    1.7890   -1.9501   -1.4022 H   0  0  0  0  0  0  0  0  0  0  0  0
   -1.3623   -2.4680   -0.7409 H   0  0  0  0  0  0  0  0  0  0  0  0
   -3.1444   -2.3569   -0.8326 H   0  0  0  0  0  0  0  0  0  0  0  0
   -2.1293   -1.5773   -2.0765 H   0  0  0  0  0  0  0  0  0  0  0  0
  1  2  1  0
  1 14  1  1
  2  3  1  0
  2 15  1  1
  3  4  1  0
  3 16  1  1
  3 11  1  0
  4  9  1  0
  4  5  1  0
  5 18  1  1
  5  7  1  0
  6 19  1  0
  6  5  1  0
  7 20  1  1
  7 21  1  0
  8  1  1  0
  8 22  1  0
 10  2  1  0
 11  7  1  0
 12 25  1  6
 12 24  1  0
 12  9  1  0
 13  1  1  0
  4 17  1  6
 23 10  1  0
 26 12  1  0
M  END
$$$$
