-42.44735022
     RDKit          3D

 26 26  0  0  1  0  0  0  0  0999 V2000
    1.6939   -1.6607   -0.8372 C   0  0  1  0  0  0  0  0  0  0  0  0
    1.6215   -0.1421   -0.6227 C   0  0  1  0  0  0  0  0  0  0  0  0
    0.4035    0.2189    0.2285 C   0  0  2  0  0  0  0  0  0  0  0  0
   -0.9554    0.0659   -0.4900 C   0  0  2  0  0  0  0  0  0  0  0  0
   -1.8138    1.2128    0.1259 C   0  0  2  0  0  0  0  0  0  0  0  0
   -2.3711    2.0624   -0.8366 O   0  0  0  0  0  0  0  0  0  0  0  0
   -0.8158    1.9334    1.0548 C   0  0  1  0  0  0  0  0  0  0  0  0
    1.8561   -2.3306    0.3844 O   0  0  0  0  0  0  0  0  0  0  0  0
   -1.5396   -1.2048   -0.4750 O   0  0  0  0  0  0  0  0  0  0  0  0
    2.8081    0.2385    0.0385 O   0  0  0  0  0  0  0  0  0  0  0  0
    0.4719    1.5901    0.5885 O   0  0  0  0  0  0  0  0  0  0  0  0
   -1.6406   -1.8718    0.7686 C   0  0  1  0  0  0  0  0  0  0  0  0
    0.7660   -2.0231   -1.2818 H   0  0  0  0  0  0  0  0  0  0  0  0
    2.5323   -1.8776   -1.5120 H   0  0  0  0  0  0  0  0  0  0  0  0
    1.5505    0.3685   -1.5961 H   0  0  0  0  0  0  0  0  0  0  0  0
    0.4171   -0.3929    1.1427 H   0  0  0  0  0  0  0  0  0  0  0  0
   -0.8262    0.2787   -1.5594 H   0  0  0  0  0  0  0  0  0  0  0  0
   -2.6688    0.8102    0.6725 H   0  0  0  0  0  0  0  0  0  0  0  0
   -1.6620    2.4680   -1.3502 H   0  0  0  0  0  0  0  0  0  0  0  0
   -0.9153    3.0181    1.0086 H   0  0  0  0  0  0  0  0  0  0  0  0
   -0.9401    1.5980    2.0937 H   0  0  0  0  0  0  0  0  0  0  0  0
    2.6201   -1.9275    0.8190 H   0  0  0  0  0  0  0  0  0  0  0  0
    2.6766    1.1311    0.3799 H   0  0  0  0  0  0  0  0  0  0  0  0
   -0.6867   -2.3262    1.0537 H   0  0  0  0  0  0  0  0  0  0  0  0
   -1.9877   -1.2085    1.5661 H   0  0  0  0  0  0  0  0  0  0  0  0
   -2.3762   -2.6594    0.6145 H   0  0  0  0  0  0  0  0  0  0  0  0
  1  2  1  0
  1  8  1  0
  2 15  1  6
  2 10  1  0
  2  3  1  0
  3  4  1  0
  3 11  1  0
  3 16  1  1
  4  9  1  0
  4  5  1  0
  5 18  1  1
  5  7  1  0
  6  5  1  0
  7 21  1  1
  8 22  1  0
  9 12  1  0
 10 23  1  0
 11  7  1  0
 12 24  1  1
 12 25  1  0
  1 13  1  6
 14  1  1  0
  4 17  1  6
 19  6  1  0
 20  7  1  0
 26 12  1  0
M  END
$$$$
