 energy: -43.264107424088 gnorm: 0.000041836020 xtb: 6.5.1 (9af7eec)
     RDKit          3D

 25 24  0  0  0  0  0  0  0  0999 V2000
   -0.9801   -0.4613    1.2372 N   0  0  0  0  0  0  0  0  0  0  0  0
   -1.5205   -1.2444    0.9006 H   0  0  0  0  0  0  0  0  0  0  0  0
   -0.8394    0.6510    0.3155 C   0  0  1  0  0  0  0  0  0  0  0  0
    0.0753    1.1868    0.5954 H   0  0  0  0  0  0  0  0  0  0  0  0
   -0.7551    0.1623   -1.1278 C   0  0  2  0  0  0  0  0  0  0  0  0
   -2.0496    1.5978    0.4619 C   0  0  0  0  0  0  0  0  0  0  0  0
   -0.0688   -0.6848   -1.1908 H   0  0  0  0  0  0  0  0  0  0  0  0
   -0.3886    0.9625   -1.7701 H   0  0  0  0  0  0  0  0  0  0  0  0
   -2.0987   -0.2783   -1.6803 C   0  0  2  0  0  0  0  0  0  0  0  0
   -2.9528    1.6035   -0.3521 O   0  0  0  0  0  0  0  0  0  0  0  0
   -2.7256   -1.1537   -0.8663 O   0  0  0  0  0  0  0  0  0  0  0  0
   -2.5093   -0.0128   -2.7730 O   0  0  0  0  0  0  0  0  0  0  0  0
   -1.9936    2.3607    1.5589 N   0  0  0  0  0  0  0  0  0  0  0  0
   -3.0529    3.2675    1.9298 C   0  0  1  0  0  0  0  0  0  0  0  0
   -1.2466    2.1926    2.2261 H   0  0  0  0  0  0  0  0  0  0  0  0
   -2.6515    4.2698    2.0832 H   0  0  0  0  0  0  0  0  0  0  0  0
   -3.7781    3.2860    1.1178 H   0  0  0  0  0  0  0  0  0  0  0  0
   -3.5433    2.9360    2.8471 H   0  0  0  0  0  0  0  0  0  0  0  0
   -0.6633   -0.3519    2.5439 C   0  0  0  0  0  0  0  0  0  0  0  0
   -0.9098   -1.6072    3.3456 C   0  0  1  0  0  0  0  0  0  0  0  0
   -0.2049    0.6735    3.0181 O   0  0  0  0  0  0  0  0  0  0  0  0
   -0.4308   -2.4605    2.8720 H   0  0  0  0  0  0  0  0  0  0  0  0
   -0.5135   -1.4773    4.3483 H   0  0  0  0  0  0  0  0  0  0  0  0
   -1.9794   -1.7973    3.4075 H   0  0  0  0  0  0  0  0  0  0  0  0
   -3.5921   -1.3688   -1.2435 H   0  0  0  0  0  0  0  0  0  0  0  0
  1  2  1  0
  1 19  1  0
  1  3  1  0
  3  6  1  0
  3  5  1  0
  3  4  1  1
  5  9  1  0
  5  8  1  6
  5  7  1  0
  6 10  1  0
  6 13  1  0
  9 11  1  0
  9 12  1  6
 11 25  1  0
 13 14  1  0
 13 15  1  0
 14 17  1  6
 14 16  1  0
 14 18  1  0
 19 20  1  0
 19 21  1  0
 20 24  1  1
 20 23  1  0
 20 22  1  0
M  END
$$$$
