 energy: -92.465040094013 gnorm: 0.000049300127 xtb: 6.5.1 (9af7eec)
     RDKit          3D

 74 76  0  0  0  0  0  0  0  0999 V2000
   -3.4974   -0.9344    2.0395 C   0  0  1  0  0  0  0  0  0  0  0  0
   -2.8201   -0.1381    0.9247 C   0  0  2  0  0  0  0  0  0  0  0  0
   -3.5065   -0.4241   -0.4211 C   0  0  1  0  0  0  0  0  0  0  0  0
   -4.9888   -0.0532   -0.4550 C   0  0  2  0  0  0  0  0  0  0  0  0
   -5.5497   -0.2006   -1.8672 C   0  0  1  0  0  0  0  0  0  0  0  0
   -7.0517    0.1076   -2.0260 C   0  0  2  0  0  0  0  0  0  0  0  0
   -7.3616    1.5683   -1.6785 C   0  0  1  0  0  0  0  0  0  0  0  0
   -7.9172   -0.8325   -1.1878 C   0  0  1  0  0  0  0  0  0  0  0  0
   -7.4205   -0.1462   -3.3776 O   0  0  0  0  0  0  0  0  0  0  0  0
   -1.3101   -0.4154    0.7854 C   0  0  2  0  0  0  0  0  0  0  0  0
   -0.8451   -1.8401    1.0843 C   0  0  2  0  0  0  0  0  0  0  0  0
    0.6667   -1.6978    0.9650 C   0  0  2  0  0  0  0  0  0  0  0  0
    0.9637   -0.3986    1.7238 C   0  0  2  0  0  0  0  0  0  0  0  0
   -0.3254    0.4788    1.5928 C   0  0  1  0  0  0  0  0  0  0  0  0
   -0.0075    1.7454    0.7891 C   0  0  1  0  0  0  0  0  0  0  0  0
    1.0928    2.5994    1.4190 C   0  0  1  0  0  0  0  0  0  0  0  0
    2.2440    1.7221    1.9454 C   0  0  2  0  0  0  0  0  0  0  0  0
    2.2007    0.3586    1.3194 C   0  0  0  0  0  0  0  0  0  0  0  0
    3.1427   -0.1495    0.5148 C   0  0  0  0  0  0  0  0  0  0  0  0
    4.3630    0.4930    0.0999 C   0  0  0  0  0  0  0  0  0  0  0  0
    5.2367   -0.0115   -0.7854 C   0  0  0  0  0  0  0  0  0  0  0  0
    6.5332    0.6728   -1.1108 C   0  0  1  0  0  0  0  0  0  0  0  0
    7.7390   -0.2600   -0.8712 C   0  0  2  0  0  0  0  0  0  0  0  0
    7.5476   -1.5738   -1.6391 C   0  0  2  0  0  0  0  0  0  0  0  0
    6.2181   -2.2481   -1.2878 C   0  0  2  0  0  0  0  0  0  0  0  0
    5.0640   -1.2908   -1.4866 C   0  0  0  0  0  0  0  0  0  0  0  0
    4.0074   -1.6065   -2.2242 C   0  0  0  0  0  0  0  0  0  0  0  0
    6.2807   -2.6687    0.0725 O   0  0  0  0  0  0  0  0  0  0  0  0
    7.9662   -0.4766    0.4961 O   0  0  0  0  0  0  0  0  0  0  0  0
   -0.8471    0.8501    2.9806 C   0  0  1  0  0  0  0  0  0  0  0  0
   -3.5619   -1.9860    1.7709 H   0  0  0  0  0  0  0  0  0  0  0  0
   -2.9572   -0.8492    2.9760 H   0  0  0  0  0  0  0  0  0  0  0  0
   -4.5047   -0.5618    2.2073 H   0  0  0  0  0  0  0  0  0  0  0  0
   -2.9492    0.9297    1.1333 H   0  0  0  0  0  0  0  0  0  0  0  0
   -2.9944    0.1462   -1.2008 H   0  0  0  0  0  0  0  0  0  0  0  0
   -3.3958   -1.4838   -0.6615 H   0  0  0  0  0  0  0  0  0  0  0  0
   -5.1039    0.9780   -0.1159 H   0  0  0  0  0  0  0  0  0  0  0  0
   -5.5447   -0.7006    0.2212 H   0  0  0  0  0  0  0  0  0  0  0  0
   -4.9930    0.4608   -2.5399 H   0  0  0  0  0  0  0  0  0  0  0  0
   -5.3868   -1.2253   -2.2109 H   0  0  0  0  0  0  0  0  0  0  0  0
   -7.2303    1.7501   -0.6163 H   0  0  0  0  0  0  0  0  0  0  0  0
   -6.7084    2.2414   -2.2322 H   0  0  0  0  0  0  0  0  0  0  0  0
   -8.3928    1.7908   -1.9434 H   0  0  0  0  0  0  0  0  0  0  0  0
   -7.7963   -0.6324   -0.1281 H   0  0  0  0  0  0  0  0  0  0  0  0
   -8.9594   -0.6885   -1.4590 H   0  0  0  0  0  0  0  0  0  0  0  0
   -7.6501   -1.8649   -1.3953 H   0  0  0  0  0  0  0  0  0  0  0  0
   -6.9159    0.4417   -3.9503 H   0  0  0  0  0  0  0  0  0  0  0  0
   -1.0643   -0.2371   -0.2684 H   0  0  0  0  0  0  0  0  0  0  0  0
   -1.2534   -2.5673    0.3838 H   0  0  0  0  0  0  0  0  0  0  0  0
   -1.1139   -2.1407    2.0963 H   0  0  0  0  0  0  0  0  0  0  0  0
    0.9305   -1.5941   -0.0886 H   0  0  0  0  0  0  0  0  0  0  0  0
    1.2096   -2.5475    1.3778 H   0  0  0  0  0  0  0  0  0  0  0  0
    1.0855   -0.6527    2.7843 H   0  0  0  0  0  0  0  0  0  0  0  0
    0.3257    1.4412   -0.2065 H   0  0  0  0  0  0  0  0  0  0  0  0
   -0.9138    2.3426    0.6680 H   0  0  0  0  0  0  0  0  0  0  0  0
    1.4721    3.2847    0.6589 H   0  0  0  0  0  0  0  0  0  0  0  0
    0.6874    3.2073    2.2290 H   0  0  0  0  0  0  0  0  0  0  0  0
    2.1399    1.5934    3.0266 H   0  0  0  0  0  0  0  0  0  0  0  0
    3.1968    2.2167    1.7710 H   0  0  0  0  0  0  0  0  0  0  0  0
    3.0071   -1.1497    0.1278 H   0  0  0  0  0  0  0  0  0  0  0  0
    4.6102    1.4409    0.5568 H   0  0  0  0  0  0  0  0  0  0  0  0
    6.5349    0.9668   -2.1647 H   0  0  0  0  0  0  0  0  0  0  0  0
    6.6541    1.5679   -0.4993 H   0  0  0  0  0  0  0  0  0  0  0  0
    8.6427    0.2433   -1.2396 H   0  0  0  0  0  0  0  0  0  0  0  0
    8.3620   -2.2551   -1.3863 H   0  0  0  0  0  0  0  0  0  0  0  0
    7.5684   -1.3801   -2.7123 H   0  0  0  0  0  0  0  0  0  0  0  0
    6.0807   -3.1334   -1.9306 H   0  0  0  0  0  0  0  0  0  0  0  0
    3.1966   -0.9136   -2.3699 H   0  0  0  0  0  0  0  0  0  0  0  0
    3.9296   -2.5567   -2.7275 H   0  0  0  0  0  0  0  0  0  0  0  0
    5.4065   -2.9664    0.3450 H   0  0  0  0  0  0  0  0  0  0  0  0
    7.3492   -1.1673    0.7827 H   0  0  0  0  0  0  0  0  0  0  0  0
   -0.1029    1.4250    3.5249 H   0  0  0  0  0  0  0  0  0  0  0  0
   -1.7509    1.4507    2.9155 H   0  0  0  0  0  0  0  0  0  0  0  0
   -1.0627   -0.0429    3.5617 H   0  0  0  0  0  0  0  0  0  0  0  0
  1  2  1  0
  2  3  1  0
  3  4  1  0
  4  5  1  0
  5  6  1  0
  6  7  1  0
  6  8  1  0
  6  9  1  6
  2 10  1  0
 10 11  1  0
 11 12  1  0
 12 13  1  0
 14 13  1  1
 14 15  1  0
 15 16  1  0
 16 17  1  0
 17 18  1  0
 18 19  2  0
 19 20  1  0
 20 21  2  0
 21 22  1  0
 22 23  1  0
 23 24  1  0
 24 25  1  0
 25 26  1  0
 26 27  2  0
 25 28  1  0
 23 29  1  0
 14 30  1  0
 14 10  1  0
 18 13  1  0
 26 21  1  0
  1 31  1  6
  1 32  1  0
  1 33  1  0
  2 34  1  1
  3 35  1  6
  3 36  1  0
  4 37  1  1
  4 38  1  0
  5 39  1  6
  5 40  1  0
  7 41  1  1
  7 42  1  0
  7 43  1  0
  8 44  1  1
  8 45  1  0
  8 46  1  0
  9 47  1  0
 10 48  1  6
 11 49  1  6
 11 50  1  0
 12 51  1  6
 12 52  1  0
 13 53  1  1
 15 54  1  6
 15 55  1  0
 16 56  1  6
 16 57  1  0
 17 58  1  1
 17 59  1  0
 19 60  1  0
 20 61  1  0
 22 62  1  6
 22 63  1  0
 23 64  1  6
 24 65  1  6
 24 66  1  0
 25 67  1  6
 27 68  1  0
 27 69  1  0
 28 70  1  0
 29 71  1  0
 30 72  1  1
 30 73  1  0
 30 74  1  0
M  END
$$$$
