 energy: -92.464327093716 gnorm: 0.000033775359 xtb: 6.5.1 (9af7eec)
     RDKit          3D

 74 76  0  0  0  0  0  0  0  0999 V2000
    3.7992   -1.0471    2.0111 C   0  0  1  0  0  0  0  0  0  0  0  0
    2.4016   -1.3278    1.4582 C   0  0  2  0  0  0  0  0  0  0  0  0
    2.4450   -1.3905   -0.0772 C   0  0  1  0  0  0  0  0  0  0  0  0
    3.3564   -2.4882   -0.6252 C   0  0  2  0  0  0  0  0  0  0  0  0
    3.2107   -2.6831   -2.1407 C   0  0  1  0  0  0  0  0  0  0  0  0
    2.3028   -3.8552   -2.5510 C   0  0  2  0  0  0  0  0  0  0  0  0
    2.2833   -3.9633   -4.0827 C   0  0  1  0  0  0  0  0  0  0  0  0
    0.8669   -3.6978   -2.0380 C   0  0  1  0  0  0  0  0  0  0  0  0
    2.8895   -5.0233   -1.9945 O   0  0  0  0  0  0  0  0  0  0  0  0
    1.3218   -0.3158    1.8891 C   0  0  2  0  0  0  0  0  0  0  0  0
    1.7587    1.1500    2.0197 C   0  0  2  0  0  0  0  0  0  0  0  0
    0.7207    1.8050    2.9474 C   0  0  2  0  0  0  0  0  0  0  0  0
   -0.2624    0.6987    3.3478 C   0  0  2  0  0  0  0  0  0  0  0  0
    0.5547   -0.6140    3.1973 C   0  0  1  0  0  0  0  0  0  0  0  0
   -0.3865   -1.8239    3.0639 C   0  0  1  0  0  0  0  0  0  0  0  0
   -1.7005   -1.5675    3.7986 C   0  0  1  0  0  0  0  0  0  0  0  0
   -2.4671   -0.4418    3.0917 C   0  0  2  0  0  0  0  0  0  0  0  0
   -1.5062    0.5628    2.5137 C   0  0  0  0  0  0  0  0  0  0  0  0
   -1.6841    1.1646    1.3314 C   0  0  0  0  0  0  0  0  0  0  0  0
   -2.8427    1.0509    0.4814 C   0  0  0  0  0  0  0  0  0  0  0  0
   -2.8958    1.4407   -0.8027 C   0  0  0  0  0  0  0  0  0  0  0  0
   -4.1617    1.3659   -1.6077 C   0  0  1  0  0  0  0  0  0  0  0  0
   -4.5044    2.7185   -2.2644 C   0  0  2  0  0  0  0  0  0  0  0  0
   -3.3074    3.2228   -3.0793 C   0  0  2  0  0  0  0  0  0  0  0  0
   -2.0376    3.3090   -2.2282 C   0  0  2  0  0  0  0  0  0  0  0  0
   -1.7531    1.9919   -1.5401 C   0  0  0  0  0  0  0  0  0  0  0  0
   -0.5562    1.4198   -1.5979 C   0  0  0  0  0  0  0  0  0  0  0  0
   -2.2244    4.3376   -1.2591 O   0  0  0  0  0  0  0  0  0  0  0  0
   -4.9371    3.6626   -1.3214 O   0  0  0  0  0  0  0  0  0  0  0  0
    1.4561   -0.8073    4.4148 C   0  0  1  0  0  0  0  0  0  0  0  0
    4.4318   -1.9207    1.8755 H   0  0  0  0  0  0  0  0  0  0  0  0
    4.2589   -0.2126    1.4862 H   0  0  0  0  0  0  0  0  0  0  0  0
    3.7729   -0.8182    3.0712 H   0  0  0  0  0  0  0  0  0  0  0  0
    2.0827   -2.3120    1.8203 H   0  0  0  0  0  0  0  0  0  0  0  0
    1.4318   -1.5560   -0.4457 H   0  0  0  0  0  0  0  0  0  0  0  0
    2.7797   -0.4236   -0.4617 H   0  0  0  0  0  0  0  0  0  0  0  0
    3.1461   -3.4356   -0.1278 H   0  0  0  0  0  0  0  0  0  0  0  0
    4.3927   -2.2299   -0.4076 H   0  0  0  0  0  0  0  0  0  0  0  0
    2.8350   -1.7680   -2.6007 H   0  0  0  0  0  0  0  0  0  0  0  0
    4.1931   -2.8935   -2.5658 H   0  0  0  0  0  0  0  0  0  0  0  0
    1.8845   -3.0537   -4.5232 H   0  0  0  0  0  0  0  0  0  0  0  0
    3.2917   -4.1224   -4.4575 H   0  0  0  0  0  0  0  0  0  0  0  0
    1.6626   -4.8010   -4.3979 H   0  0  0  0  0  0  0  0  0  0  0  0
    0.4415   -2.7581   -2.3798 H   0  0  0  0  0  0  0  0  0  0  0  0
    0.2453   -4.5112   -2.4116 H   0  0  0  0  0  0  0  0  0  0  0  0
    0.8489   -3.7276   -0.9522 H   0  0  0  0  0  0  0  0  0  0  0  0
    2.3591   -5.7841   -2.2547 H   0  0  0  0  0  0  0  0  0  0  0  0
    0.5488   -0.3397    1.1125 H   0  0  0  0  0  0  0  0  0  0  0  0
    1.7903    1.6307    1.0419 H   0  0  0  0  0  0  0  0  0  0  0  0
    2.7517    1.2277    2.4566 H   0  0  0  0  0  0  0  0  0  0  0  0
    0.2096    2.6432    2.4765 H   0  0  0  0  0  0  0  0  0  0  0  0
    1.2065    2.1954    3.8425 H   0  0  0  0  0  0  0  0  0  0  0  0
   -0.5757    0.8348    4.3870 H   0  0  0  0  0  0  0  0  0  0  0  0
   -0.6120   -2.0113    2.0114 H   0  0  0  0  0  0  0  0  0  0  0  0
    0.0960   -2.7173    3.4640 H   0  0  0  0  0  0  0  0  0  0  0  0
   -2.3085   -2.4738    3.8123 H   0  0  0  0  0  0  0  0  0  0  0  0
   -1.4909   -1.3012    4.8359 H   0  0  0  0  0  0  0  0  0  0  0  0
   -3.1410    0.0529    3.7981 H   0  0  0  0  0  0  0  0  0  0  0  0
   -3.0771   -0.8707    2.2969 H   0  0  0  0  0  0  0  0  0  0  0  0
   -0.9036    1.8051    0.9459 H   0  0  0  0  0  0  0  0  0  0  0  0
   -3.7467    0.6587    0.9267 H   0  0  0  0  0  0  0  0  0  0  0  0
   -4.0409    0.6240   -2.4034 H   0  0  0  0  0  0  0  0  0  0  0  0
   -4.9952    1.0613   -0.9734 H   0  0  0  0  0  0  0  0  0  0  0  0
   -5.3592    2.5679   -2.9371 H   0  0  0  0  0  0  0  0  0  0  0  0
   -3.5342    4.2171   -3.4679 H   0  0  0  0  0  0  0  0  0  0  0  0
   -3.1219    2.5491   -3.9170 H   0  0  0  0  0  0  0  0  0  0  0  0
   -1.1870    3.5787   -2.8762 H   0  0  0  0  0  0  0  0  0  0  0  0
   -0.3578    0.4790   -1.1144 H   0  0  0  0  0  0  0  0  0  0  0  0
    0.2571    1.8585   -2.1534 H   0  0  0  0  0  0  0  0  0  0  0  0
   -1.4790    4.3282   -0.6498 H   0  0  0  0  0  0  0  0  0  0  0  0
   -4.1451    4.0427   -0.9119 H   0  0  0  0  0  0  0  0  0  0  0  0
    0.8471   -0.9394    5.3079 H   0  0  0  0  0  0  0  0  0  0  0  0
    2.0740   -1.6942    4.2987 H   0  0  0  0  0  0  0  0  0  0  0  0
    2.1007    0.0527    4.5713 H   0  0  0  0  0  0  0  0  0  0  0  0
  1  2  1  0
  2  3  1  0
  3  4  1  0
  4  5  1  0
  5  6  1  0
  6  7  1  0
  6  8  1  0
  6  9  1  1
  2 10  1  0
 10 11  1  0
 11 12  1  0
 12 13  1  0
 14 13  1  1
 14 15  1  0
 15 16  1  0
 16 17  1  0
 17 18  1  0
 18 19  2  0
 19 20  1  0
 20 21  2  0
 21 22  1  0
 22 23  1  0
 23 24  1  0
 24 25  1  0
 25 26  1  0
 26 27  2  0
 25 28  1  0
 23 29  1  0
 14 30  1  0
 14 10  1  0
 18 13  1  0
 26 21  1  0
  1 31  1  1
  1 32  1  0
  1 33  1  0
  2 34  1  1
  3 35  1  6
  3 36  1  0
  4 37  1  1
  4 38  1  0
  5 39  1  6
  5 40  1  0
  7 41  1  6
  7 42  1  0
  7 43  1  0
  8 44  1  1
  8 45  1  0
  8 46  1  0
  9 47  1  0
 10 48  1  6
 11 49  1  6
 11 50  1  0
 12 51  1  6
 12 52  1  0
 13 53  1  1
 15 54  1  6
 15 55  1  0
 16 56  1  1
 16 57  1  0
 17 58  1  1
 17 59  1  0
 19 60  1  0
 20 61  1  0
 22 62  1  6
 22 63  1  0
 23 64  1  6
 24 65  1  6
 24 66  1  0
 25 67  1  6
 27 68  1  0
 27 69  1  0
 28 70  1  0
 29 71  1  0
 30 72  1  1
 30 73  1  0
 30 74  1  0
M  END
$$$$
