 energy: -92.464802427702 gnorm: 0.000042322509 xtb: 6.5.1 (9af7eec)
     RDKit          3D

 74 76  0  0  0  0  0  0  0  0999 V2000
   -0.4417   -1.1696   -2.2390 C   0  0  1  0  0  0  0  0  0  0  0  0
    0.8293   -0.7651   -1.4850 C   0  0  2  0  0  0  0  0  0  0  0  0
    2.0753   -1.2113   -2.2648 C   0  0  1  0  0  0  0  0  0  0  0  0
    2.1776   -0.5750   -3.6492 C   0  0  2  0  0  0  0  0  0  0  0  0
    3.4785   -0.9714   -4.3439 C   0  0  1  0  0  0  0  0  0  0  0  0
    3.7362   -0.2161   -5.6575 C   0  0  2  0  0  0  0  0  0  0  0  0
    2.6121   -0.4418   -6.6761 C   0  0  1  0  0  0  0  0  0  0  0  0
    5.0696   -0.6842   -6.2579 C   0  0  1  0  0  0  0  0  0  0  0  0
    3.8192    1.1610   -5.3195 O   0  0  0  0  0  0  0  0  0  0  0  0
    0.9171   -1.3013   -0.0409 C   0  0  2  0  0  0  0  0  0  0  0  0
    0.6515   -2.8197    0.0574 C   0  0  2  0  0  0  0  0  0  0  0  0
   -0.2938   -3.0306    1.2408 C   0  0  2  0  0  0  0  0  0  0  0  0
   -1.0830   -1.7192    1.3126 C   0  0  2  0  0  0  0  0  0  0  0  0
   -0.0153   -0.6414    1.0234 C   0  0  1  0  0  0  0  0  0  0  0  0
    0.8233   -0.3885    2.2910 C   0  0  1  0  0  0  0  0  0  0  0  0
   -0.0173   -0.1093    3.5315 C   0  0  1  0  0  0  0  0  0  0  0  0
   -0.9784   -1.2691    3.7999 C   0  0  2  0  0  0  0  0  0  0  0  0
   -1.8340   -1.5004    2.5918 C   0  0  0  0  0  0  0  0  0  0  0  0
   -3.1740   -1.4637    2.5816 C   0  0  0  0  0  0  0  0  0  0  0  0
   -4.0495   -1.2996    3.7131 C   0  0  0  0  0  0  0  0  0  0  0  0
   -5.3734   -1.0879    3.6400 C   0  0  0  0  0  0  0  0  0  0  0  0
   -6.2285   -1.0208    4.8748 C   0  0  1  0  0  0  0  0  0  0  0  0
   -7.4277   -1.9679    4.7500 C   0  0  2  0  0  0  0  0  0  0  0  0
   -8.2171   -1.6291    3.4903 C   0  0  2  0  0  0  0  0  0  0  0  0
   -7.3382   -1.7707    2.2422 C   0  0  2  0  0  0  0  0  0  0  0  0
   -6.1056   -0.9032    2.3785 C   0  0  0  0  0  0  0  0  0  0  0  0
   -5.7426   -0.0377    1.4410 C   0  0  0  0  0  0  0  0  0  0  0  0
   -8.0425   -1.4276    1.0707 O   0  0  0  0  0  0  0  0  0  0  0  0
   -8.3075   -1.8582    5.8493 O   0  0  0  0  0  0  0  0  0  0  0  0
   -0.6750    0.6685    0.5967 C   0  0  1  0  0  0  0  0  0  0  0  0
   -0.3256   -2.1446   -2.7076 H   0  0  0  0  0  0  0  0  0  0  0  0
   -1.3025   -1.2144   -1.5792 H   0  0  0  0  0  0  0  0  0  0  0  0
   -0.6575   -0.4482   -3.0234 H   0  0  0  0  0  0  0  0  0  0  0  0
    0.8637    0.3266   -1.4282 H   0  0  0  0  0  0  0  0  0  0  0  0
    2.9658   -0.9386   -1.6931 H   0  0  0  0  0  0  0  0  0  0  0  0
    2.0711   -2.2992   -2.3658 H   0  0  0  0  0  0  0  0  0  0  0  0
    2.1527    0.5115   -3.5551 H   0  0  0  0  0  0  0  0  0  0  0  0
    1.3302   -0.8882   -4.2579 H   0  0  0  0  0  0  0  0  0  0  0  0
    4.3125   -0.7520   -3.6744 H   0  0  0  0  0  0  0  0  0  0  0  0
    3.4794   -2.0438   -4.5475 H   0  0  0  0  0  0  0  0  0  0  0  0
    2.4357   -1.5044   -6.8171 H   0  0  0  0  0  0  0  0  0  0  0  0
    1.6946    0.0277   -6.3324 H   0  0  0  0  0  0  0  0  0  0  0  0
    2.8808   -0.0054   -7.6374 H   0  0  0  0  0  0  0  0  0  0  0  0
    5.2849   -0.1420   -7.1778 H   0  0  0  0  0  0  0  0  0  0  0  0
    5.8782   -0.5026   -5.5539 H   0  0  0  0  0  0  0  0  0  0  0  0
    5.0324   -1.7462   -6.4839 H   0  0  0  0  0  0  0  0  0  0  0  0
    3.9886    1.6619   -6.1244 H   0  0  0  0  0  0  0  0  0  0  0  0
    1.9463   -1.1005    0.2739 H   0  0  0  0  0  0  0  0  0  0  0  0
    1.5783   -3.3796    0.1826 H   0  0  0  0  0  0  0  0  0  0  0  0
    0.1726   -3.1760   -0.8517 H   0  0  0  0  0  0  0  0  0  0  0  0
    0.2689   -3.1908    2.1596 H   0  0  0  0  0  0  0  0  0  0  0  0
   -0.9503   -3.8886    1.0968 H   0  0  0  0  0  0  0  0  0  0  0  0
   -1.8029   -1.7193    0.4879 H   0  0  0  0  0  0  0  0  0  0  0  0
    1.4468   -1.2622    2.4906 H   0  0  0  0  0  0  0  0  0  0  0  0
    1.4929    0.4554    2.1066 H   0  0  0  0  0  0  0  0  0  0  0  0
    0.6419    0.0273    4.3923 H   0  0  0  0  0  0  0  0  0  0  0  0
   -0.5897    0.8111    3.4068 H   0  0  0  0  0  0  0  0  0  0  0  0
   -1.5836   -1.0451    4.6771 H   0  0  0  0  0  0  0  0  0  0  0  0
   -0.3965   -2.1697    4.0159 H   0  0  0  0  0  0  0  0  0  0  0  0
   -3.6815   -1.5860    1.6329 H   0  0  0  0  0  0  0  0  0  0  0  0
   -3.6087   -1.3959    4.6969 H   0  0  0  0  0  0  0  0  0  0  0  0
   -5.6395   -1.2735    5.7607 H   0  0  0  0  0  0  0  0  0  0  0  0
   -6.6144   -0.0037    4.9996 H   0  0  0  0  0  0  0  0  0  0  0  0
   -7.0557   -3.0053    4.6749 H   0  0  0  0  0  0  0  0  0  0  0  0
   -8.5808   -0.6024    3.5624 H   0  0  0  0  0  0  0  0  0  0  0  0
   -9.0833   -2.2920    3.4223 H   0  0  0  0  0  0  0  0  0  0  0  0
   -6.9978   -2.8224    2.1734 H   0  0  0  0  0  0  0  0  0  0  0  0
   -6.3176    0.0702    0.5391 H   0  0  0  0  0  0  0  0  0  0  0  0
   -4.8790    0.5927    1.5639 H   0  0  0  0  0  0  0  0  0  0  0  0
   -8.8664   -1.9260    1.0554 H   0  0  0  0  0  0  0  0  0  0  0  0
   -7.8077   -1.9864    6.6626 H   0  0  0  0  0  0  0  0  0  0  0  0
    0.0695    1.4484    0.4503 H   0  0  0  0  0  0  0  0  0  0  0  0
   -1.2434    0.5545   -0.3201 H   0  0  0  0  0  0  0  0  0  0  0  0
   -1.3656    0.9956    1.3707 H   0  0  0  0  0  0  0  0  0  0  0  0
  1  2  1  0
  2  3  1  0
  3  4  1  0
  4  5  1  0
  5  6  1  0
  6  7  1  0
  6  8  1  0
  6  9  1  1
  2 10  1  0
 10 11  1  0
 11 12  1  0
 12 13  1  0
 14 13  1  1
 14 15  1  0
 15 16  1  0
 16 17  1  0
 17 18  1  0
 18 19  2  0
 19 20  1  0
 20 21  2  0
 21 22  1  0
 22 23  1  0
 23 24  1  0
 24 25  1  0
 25 26  1  0
 26 27  2  0
 25 28  1  0
 23 29  1  0
 14 30  1  0
 14 10  1  0
 18 13  1  0
 26 21  1  0
  1 31  1  6
  1 32  1  0
  1 33  1  0
  2 34  1  1
  3 35  1  1
  3 36  1  0
  4 37  1  1
  4 38  1  0
  5 39  1  1
  5 40  1  0
  7 41  1  6
  7 42  1  0
  7 43  1  0
  8 44  1  6
  8 45  1  0
  8 46  1  0
  9 47  1  0
 10 48  1  1
 11 49  1  1
 11 50  1  0
 12 51  1  1
 12 52  1  0
 13 53  1  6
 15 54  1  1
 15 55  1  0
 16 56  1  1
 16 57  1  0
 17 58  1  1
 17 59  1  0
 19 60  1  0
 20 61  1  0
 22 62  1  1
 22 63  1  0
 23 64  1  6
 24 65  1  1
 24 66  1  0
 25 67  1  6
 27 68  1  0
 27 69  1  0
 28 70  1  0
 29 71  1  0
 30 72  1  6
 30 73  1  0
 30 74  1  0
M  END
$$$$
