 energy: -92.464366181297 gnorm: 0.000047680662 xtb: 6.5.1 (9af7eec)
     RDKit          3D

 74 76  0  0  0  0  0  0  0  0999 V2000
    2.7350    1.4237   -0.8344 C   0  0  1  0  0  0  0  0  0  0  0  0
    2.6661    0.4082    0.3093 C   0  0  2  0  0  0  0  0  0  0  0  0
    2.9422   -0.9932   -0.2630 C   0  0  1  0  0  0  0  0  0  0  0  0
    4.4333   -1.3220   -0.3159 C   0  0  2  0  0  0  0  0  0  0  0  0
    4.6729   -2.6992   -0.9283 C   0  0  1  0  0  0  0  0  0  0  0  0
    6.1430   -3.1605   -0.9796 C   0  0  2  0  0  0  0  0  0  0  0  0
    6.7199   -3.3442    0.4291 C   0  0  1  0  0  0  0  0  0  0  0  0
    7.0124   -2.1979   -1.7876 C   0  0  1  0  0  0  0  0  0  0  0  0
    6.2000   -4.3993   -1.6788 O   0  0  0  0  0  0  0  0  0  0  0  0
    1.2975    0.4571    1.0095 C   0  0  2  0  0  0  0  0  0  0  0  0
    0.8079    1.8925    1.2792 C   0  0  2  0  0  0  0  0  0  0  0  0
   -0.1256    1.7661    2.4754 C   0  0  2  0  0  0  0  0  0  0  0  0
    0.6718    0.8144    3.3678 C   0  0  2  0  0  0  0  0  0  0  0  0
    1.1669   -0.2834    2.3890 C   0  0  1  0  0  0  0  0  0  0  0  0
    0.1162   -1.3990    2.2425 C   0  0  1  0  0  0  0  0  0  0  0  0
   -0.4481   -1.8962    3.5673 C   0  0  1  0  0  0  0  0  0  0  0  0
   -1.0901   -0.7312    4.3223 C   0  0  2  0  0  0  0  0  0  0  0  0
   -0.0382    0.3007    4.5837 C   0  0  0  0  0  0  0  0  0  0  0  0
    0.3440    0.7136    5.8006 C   0  0  0  0  0  0  0  0  0  0  0  0
   -0.2339    0.3450    7.0675 C   0  0  0  0  0  0  0  0  0  0  0  0
    0.3059    0.6143    8.2664 C   0  0  0  0  0  0  0  0  0  0  0  0
   -0.3908    0.2599    9.5496 C   0  0  1  0  0  0  0  0  0  0  0  0
   -0.4688    1.4756   10.4844 C   0  0  2  0  0  0  0  0  0  0  0  0
    0.9281    2.0420   10.7128 C   0  0  2  0  0  0  0  0  0  0  0  0
    1.5636    2.4595    9.3859 C   0  0  2  0  0  0  0  0  0  0  0  0
    1.6119    1.2646    8.4538 C   0  0  0  0  0  0  0  0  0  0  0  0
    2.7275    0.8205    7.8895 C   0  0  0  0  0  0  0  0  0  0  0  0
    2.8207    3.0246    9.6684 O   0  0  0  0  0  0  0  0  0  0  0  0
   -1.0041    1.1323   11.7441 O   0  0  0  0  0  0  0  0  0  0  0  0
    2.4584   -0.8625    2.9693 C   0  0  1  0  0  0  0  0  0  0  0  0
    2.7235    2.4461   -0.4681 H   0  0  0  0  0  0  0  0  0  0  0  0
    3.6530    1.2827   -1.4001 H   0  0  0  0  0  0  0  0  0  0  0  0
    1.8941    1.2906   -1.5119 H   0  0  0  0  0  0  0  0  0  0  0  0
    3.4498    0.6629    1.0276 H   0  0  0  0  0  0  0  0  0  0  0  0
    2.4364   -1.7509    0.3344 H   0  0  0  0  0  0  0  0  0  0  0  0
    2.5228   -1.0523   -1.2700 H   0  0  0  0  0  0  0  0  0  0  0  0
    4.8358   -1.2935    0.6983 H   0  0  0  0  0  0  0  0  0  0  0  0
    4.9510   -0.5646   -0.9046 H   0  0  0  0  0  0  0  0  0  0  0  0
    4.1022   -3.4418   -0.3598 H   0  0  0  0  0  0  0  0  0  0  0  0
    4.2894   -2.7081   -1.9517 H   0  0  0  0  0  0  0  0  0  0  0  0
    6.0771   -3.9899    1.0261 H   0  0  0  0  0  0  0  0  0  0  0  0
    7.7029   -3.8045    0.3585 H   0  0  0  0  0  0  0  0  0  0  0  0
    6.8213   -2.3892    0.9353 H   0  0  0  0  0  0  0  0  0  0  0  0
    7.9909   -2.6461   -1.9362 H   0  0  0  0  0  0  0  0  0  0  0  0
    6.5649   -2.0245   -2.7622 H   0  0  0  0  0  0  0  0  0  0  0  0
    7.1305   -1.2523   -1.2685 H   0  0  0  0  0  0  0  0  0  0  0  0
    5.6821   -5.0510   -1.1940 H   0  0  0  0  0  0  0  0  0  0  0  0
    0.5889   -0.0072    0.3154 H   0  0  0  0  0  0  0  0  0  0  0  0
    0.3184    2.3280    0.4098 H   0  0  0  0  0  0  0  0  0  0  0  0
    1.6507    2.5286    1.5559 H   0  0  0  0  0  0  0  0  0  0  0  0
   -1.0768    1.3246    2.1790 H   0  0  0  0  0  0  0  0  0  0  0  0
   -0.3229    2.7209    2.9618 H   0  0  0  0  0  0  0  0  0  0  0  0
    1.5535    1.3721    3.7047 H   0  0  0  0  0  0  0  0  0  0  0  0
   -0.7211   -1.0266    1.6476 H   0  0  0  0  0  0  0  0  0  0  0  0
    0.5582   -2.2345    1.6938 H   0  0  0  0  0  0  0  0  0  0  0  0
   -1.1947   -2.6702    3.3745 H   0  0  0  0  0  0  0  0  0  0  0  0
    0.3372   -2.3382    4.1826 H   0  0  0  0  0  0  0  0  0  0  0  0
   -1.5361   -1.0905    5.2479 H   0  0  0  0  0  0  0  0  0  0  0  0
   -1.8853   -0.3027    3.7057 H   0  0  0  0  0  0  0  0  0  0  0  0
    1.1706    1.4107    5.8654 H   0  0  0  0  0  0  0  0  0  0  0  0
   -1.1910   -0.1591    7.0471 H   0  0  0  0  0  0  0  0  0  0  0  0
   -1.3941   -0.1235    9.3446 H   0  0  0  0  0  0  0  0  0  0  0  0
    0.1748   -0.5220   10.0670 H   0  0  0  0  0  0  0  0  0  0  0  0
   -1.0992    2.2486   10.0102 H   0  0  0  0  0  0  0  0  0  0  0  0
    1.5547    1.2872   11.1891 H   0  0  0  0  0  0  0  0  0  0  0  0
    0.8759    2.9032   11.3784 H   0  0  0  0  0  0  0  0  0  0  0  0
    0.9129    3.2204    8.9126 H   0  0  0  0  0  0  0  0  0  0  0  0
    2.7232   -0.0481    7.2542 H   0  0  0  0  0  0  0  0  0  0  0  0
    3.6856    1.2801    8.0676 H   0  0  0  0  0  0  0  0  0  0  0  0
    3.2405    3.2739    8.8383 H   0  0  0  0  0  0  0  0  0  0  0  0
   -1.8671    0.7234   11.6171 H   0  0  0  0  0  0  0  0  0  0  0  0
    3.2426   -0.1110    3.0063 H   0  0  0  0  0  0  0  0  0  0  0  0
    2.2714   -1.1874    3.9910 H   0  0  0  0  0  0  0  0  0  0  0  0
    2.8216   -1.7151    2.4042 H   0  0  0  0  0  0  0  0  0  0  0  0
  1  2  1  0
  2  3  1  0
  3  4  1  0
  4  5  1  0
  5  6  1  0
  6  7  1  0
  6  8  1  0
  6  9  1  6
  2 10  1  0
 10 11  1  0
 11 12  1  0
 12 13  1  0
 14 13  1  1
 14 15  1  0
 15 16  1  0
 16 17  1  0
 17 18  1  0
 18 19  2  0
 19 20  1  0
 20 21  2  0
 21 22  1  0
 22 23  1  0
 23 24  1  0
 24 25  1  0
 25 26  1  0
 26 27  2  0
 25 28  1  0
 23 29  1  0
 14 30  1  0
 14 10  1  0
 18 13  1  0
 26 21  1  0
  1 31  1  1
  1 32  1  0
  1 33  1  0
  2 34  1  1
  3 35  1  1
  3 36  1  0
  4 37  1  1
  4 38  1  0
  5 39  1  1
  5 40  1  0
  7 41  1  1
  7 42  1  0
  7 43  1  0
  8 44  1  6
  8 45  1  0
  8 46  1  0
  9 47  1  0
 10 48  1  6
 11 49  1  6
 11 50  1  0
 12 51  1  6
 12 52  1  0
 13 53  1  1
 15 54  1  6
 15 55  1  0
 16 56  1  6
 16 57  1  0
 17 58  1  1
 17 59  1  0
 19 60  1  0
 20 61  1  0
 22 62  1  6
 22 63  1  0
 23 64  1  6
 24 65  1  1
 24 66  1  0
 25 67  1  6
 27 68  1  0
 27 69  1  0
 28 70  1  0
 29 71  1  0
 30 72  1  1
 30 73  1  0
 30 74  1  0
M  END
$$$$
