 energy: -92.461421073979 gnorm: 0.000026428601 xtb: 6.5.1 (9af7eec)
     RDKit          3D

 74 76  0  0  0  0  0  0  0  0999 V2000
    2.4301   -2.9274    1.8561 C   0  0  1  0  0  0  0  0  0  0  0  0
    1.3791   -2.4772    0.8378 C   0  0  2  0  0  0  0  0  0  0  0  0
    2.0230   -2.3483   -0.5485 C   0  0  1  0  0  0  0  0  0  0  0  0
    2.6132   -3.6582   -1.0734 C   0  0  2  0  0  0  0  0  0  0  0  0
    2.8083   -3.6971   -2.5898 C   0  0  1  0  0  0  0  0  0  0  0  0
    3.8721   -2.7750   -3.2168 C   0  0  2  0  0  0  0  0  0  0  0  0
    5.1543   -2.7120   -2.3797 C   0  0  1  0  0  0  0  0  0  0  0  0
    3.3449   -1.3595   -3.4778 C   0  0  1  0  0  0  0  0  0  0  0  0
    4.1584   -3.3966   -4.4679 O   0  0  0  0  0  0  0  0  0  0  0  0
    0.7432   -1.1559    1.3074 C   0  0  2  0  0  0  0  0  0  0  0  0
    0.1041   -1.3046    2.7032 C   0  0  2  0  0  0  0  0  0  0  0  0
   -1.0637   -0.3116    2.7700 C   0  0  2  0  0  0  0  0  0  0  0  0
   -1.0450    0.4486    1.4448 C   0  0  2  0  0  0  0  0  0  0  0  0
   -0.3747   -0.5260    0.4356 C   0  0  1  0  0  0  0  0  0  0  0  0
    0.1462    0.2737   -0.7745 C   0  0  1  0  0  0  0  0  0  0  0  0
   -0.6821    1.5357   -1.0109 C   0  0  1  0  0  0  0  0  0  0  0  0
   -0.5020    2.5114    0.1587 C   0  0  2  0  0  0  0  0  0  0  0  0
   -0.2812    1.7436    1.4318 C   0  0  0  0  0  0  0  0  0  0  0  0
    0.6050    2.1063    2.3599 C   0  0  0  0  0  0  0  0  0  0  0  0
    1.4256    3.3087    2.3513 C   0  0  0  0  0  0  0  0  0  0  0  0
    1.0050    4.5769    2.2663 C   0  0  0  0  0  0  0  0  0  0  0  0
   -0.4422    4.9726    2.2470 C   0  0  1  0  0  0  0  0  0  0  0  0
   -0.7592    6.0769    3.2746 C   0  0  2  0  0  0  0  0  0  0  0  0
    0.1926    7.2630    3.0891 C   0  0  2  0  0  0  0  0  0  0  0  0
    1.6571    6.8330    3.1907 C   0  0  2  0  0  0  0  0  0  0  0  0
    1.9658    5.6867    2.2542 C   0  0  0  0  0  0  0  0  0  0  0  0
    3.0710    5.6792    1.5165 C   0  0  0  0  0  0  0  0  0  0  0  0
    1.9110    6.4377    4.5379 O   0  0  0  0  0  0  0  0  0  0  0  0
   -0.7448    5.5868    4.5897 O   0  0  0  0  0  0  0  0  0  0  0  0
   -1.3995   -1.5627   -0.0264 C   0  0  1  0  0  0  0  0  0  0  0  0
    2.8685   -3.8756    1.5586 H   0  0  0  0  0  0  0  0  0  0  0  0
    3.2250   -2.1876    1.9296 H   0  0  0  0  0  0  0  0  0  0  0  0
    1.9940   -3.0606    2.8414 H   0  0  0  0  0  0  0  0  0  0  0  0
    0.6005   -3.2455    0.7899 H   0  0  0  0  0  0  0  0  0  0  0  0
    1.2686   -2.0180   -1.2585 H   0  0  0  0  0  0  0  0  0  0  0  0
    2.7982   -1.5820   -0.4973 H   0  0  0  0  0  0  0  0  0  0  0  0
    1.9221   -4.4683   -0.8248 H   0  0  0  0  0  0  0  0  0  0  0  0
    3.5599   -3.8755   -0.5808 H   0  0  0  0  0  0  0  0  0  0  0  0
    3.1024   -4.7120   -2.8673 H   0  0  0  0  0  0  0  0  0  0  0  0
    1.8564   -3.4945   -3.0846 H   0  0  0  0  0  0  0  0  0  0  0  0
    4.9775   -2.2081   -1.4348 H   0  0  0  0  0  0  0  0  0  0  0  0
    5.5231   -3.7166   -2.1879 H   0  0  0  0  0  0  0  0  0  0  0  0
    5.9235   -2.1626   -2.9217 H   0  0  0  0  0  0  0  0  0  0  0  0
    3.0779   -0.8608   -2.5532 H   0  0  0  0  0  0  0  0  0  0  0  0
    4.1070   -0.7647   -3.9816 H   0  0  0  0  0  0  0  0  0  0  0  0
    2.4677   -1.4052   -4.1194 H   0  0  0  0  0  0  0  0  0  0  0  0
    4.7889   -2.8477   -4.9474 H   0  0  0  0  0  0  0  0  0  0  0  0
    1.5438   -0.4109    1.3762 H   0  0  0  0  0  0  0  0  0  0  0  0
    0.8353   -1.1078    3.4861 H   0  0  0  0  0  0  0  0  0  0  0  0
   -0.2590   -2.3240    2.8403 H   0  0  0  0  0  0  0  0  0  0  0  0
   -0.9878    0.3653    3.6195 H   0  0  0  0  0  0  0  0  0  0  0  0
   -2.0103   -0.8435    2.8702 H   0  0  0  0  0  0  0  0  0  0  0  0
   -2.0674    0.6720    1.1267 H   0  0  0  0  0  0  0  0  0  0  0  0
    1.1832    0.5720   -0.6071 H   0  0  0  0  0  0  0  0  0  0  0  0
    0.1140   -0.3390   -1.6762 H   0  0  0  0  0  0  0  0  0  0  0  0
   -0.3697    2.0142   -1.9410 H   0  0  0  0  0  0  0  0  0  0  0  0
   -1.7324    1.2620   -1.1247 H   0  0  0  0  0  0  0  0  0  0  0  0
   -1.3887    3.1453    0.2447 H   0  0  0  0  0  0  0  0  0  0  0  0
    0.3525    3.1663   -0.0209 H   0  0  0  0  0  0  0  0  0  0  0  0
    0.8104    1.4442    3.1912 H   0  0  0  0  0  0  0  0  0  0  0  0
    2.4877    3.1296    2.4872 H   0  0  0  0  0  0  0  0  0  0  0  0
   -0.7069    5.3467    1.2536 H   0  0  0  0  0  0  0  0  0  0  0  0
   -1.0609    4.1038    2.4719 H   0  0  0  0  0  0  0  0  0  0  0  0
   -1.7903    6.4144    3.1034 H   0  0  0  0  0  0  0  0  0  0  0  0
   -0.0059    8.0066    3.8630 H   0  0  0  0  0  0  0  0  0  0  0  0
    0.0282    7.7171    2.1111 H   0  0  0  0  0  0  0  0  0  0  0  0
    2.3028    7.6924    2.9456 H   0  0  0  0  0  0  0  0  0  0  0  0
    3.3016    4.8614    0.8556 H   0  0  0  0  0  0  0  0  0  0  0  0
    3.7707    6.4989    1.5304 H   0  0  0  0  0  0  0  0  0  0  0  0
    2.8068    6.0889    4.5928 H   0  0  0  0  0  0  0  0  0  0  0  0
    0.1783    5.5838    4.8848 H   0  0  0  0  0  0  0  0  0  0  0  0
   -2.2218   -1.0703   -0.5425 H   0  0  0  0  0  0  0  0  0  0  0  0
   -0.9524   -2.2761   -0.7139 H   0  0  0  0  0  0  0  0  0  0  0  0
   -1.8073   -2.1105    0.8181 H   0  0  0  0  0  0  0  0  0  0  0  0
  1  2  1  0
  2  3  1  0
  3  4  1  0
  4  5  1  0
  5  6  1  0
  6  7  1  0
  6  8  1  0
  6  9  1  6
  2 10  1  0
 10 11  1  0
 11 12  1  0
 12 13  1  0
 14 13  1  1
 14 15  1  0
 15 16  1  0
 16 17  1  0
 17 18  1  0
 18 19  2  0
 19 20  1  0
 20 21  2  0
 21 22  1  0
 22 23  1  0
 23 24  1  0
 24 25  1  0
 25 26  1  0
 26 27  2  0
 25 28  1  0
 23 29  1  0
 14 30  1  0
 14 10  1  0
 18 13  1  0
 26 21  1  0
  1 31  1  6
  1 32  1  0
  1 33  1  0
  2 34  1  6
  3 35  1  6
  3 36  1  0
  4 37  1  6
  4 38  1  0
  5 39  1  6
  5 40  1  0
  7 41  1  1
  7 42  1  0
  7 43  1  0
  8 44  1  1
  8 45  1  0
  8 46  1  0
  9 47  1  0
 10 48  1  1
 11 49  1  1
 11 50  1  0
 12 51  1  1
 12 52  1  0
 13 53  1  6
 15 54  1  1
 15 55  1  0
 16 56  1  6
 16 57  1  0
 17 58  1  1
 17 59  1  0
 19 60  1  0
 20 61  1  0
 22 62  1  6
 22 63  1  0
 23 64  1  6
 24 65  1  1
 24 66  1  0
 25 67  1  6
 27 68  1  0
 27 69  1  0
 28 70  1  0
 29 71  1  0
 30 72  1  6
 30 73  1  0
 30 74  1  0
M  END
$$$$
