 energy: -92.463375582101 gnorm: 0.000045616132 xtb: 6.5.1 (9af7eec)
     RDKit          3D

 74 76  0  0  0  0  0  0  0  0999 V2000
    1.9234    0.2758   -2.1547 C   0  0  1  0  0  0  0  0  0  0  0  0
    2.6558   -0.2298   -0.9115 C   0  0  2  0  0  0  0  0  0  0  0  0
    4.0406   -0.7590   -1.3226 C   0  0  1  0  0  0  0  0  0  0  0  0
    5.0542   -0.7679   -0.1810 C   0  0  2  0  0  0  0  0  0  0  0  0
    6.4126   -1.3386   -0.5914 C   0  0  1  0  0  0  0  0  0  0  0  0
    6.4529   -2.8355   -0.9519 C   0  0  2  0  0  0  0  0  0  0  0  0
    5.6945   -3.7023    0.0606 C   0  0  1  0  0  0  0  0  0  0  0  0
    7.9206   -3.2875   -1.0058 C   0  0  1  0  0  0  0  0  0  0  0  0
    5.8740   -2.9751   -2.2418 O   0  0  0  0  0  0  0  0  0  0  0  0
    1.8986   -1.3038   -0.1006 C   0  0  2  0  0  0  0  0  0  0  0  0
    1.4459   -2.5097   -0.9501 C   0  0  2  0  0  0  0  0  0  0  0  0
   -0.0902   -2.5036   -0.9907 C   0  0  2  0  0  0  0  0  0  0  0  0
   -0.5283   -1.1918   -0.3195 C   0  0  2  0  0  0  0  0  0  0  0  0
    0.6177   -0.8591    0.6578 C   0  0  1  0  0  0  0  0  0  0  0  0
    0.5029   -1.7307    1.9223 C   0  0  1  0  0  0  0  0  0  0  0  0
   -0.8750   -1.6735    2.5713 C   0  0  1  0  0  0  0  0  0  0  0  0
   -1.9461   -2.1083    1.5721 C   0  0  2  0  0  0  0  0  0  0  0  0
   -1.8764   -1.2680    0.3306 C   0  0  0  0  0  0  0  0  0  0  0  0
   -2.9759   -0.6542   -0.1308 C   0  0  0  0  0  0  0  0  0  0  0  0
   -3.0826    0.2063   -1.2802 C   0  0  0  0  0  0  0  0  0  0  0  0
   -4.2334    0.6463   -1.8134 C   0  0  0  0  0  0  0  0  0  0  0  0
   -4.2463    1.6160   -2.9625 C   0  0  1  0  0  0  0  0  0  0  0  0
   -5.1533    2.8117   -2.6481 C   0  0  2  0  0  0  0  0  0  0  0  0
   -6.5530    2.3147   -2.3043 C   0  0  2  0  0  0  0  0  0  0  0  0
   -6.5166    1.3817   -1.0880 C   0  0  2  0  0  0  0  0  0  0  0  0
   -5.5659    0.2336   -1.3487 C   0  0  0  0  0  0  0  0  0  0  0  0
   -5.9265   -1.0332   -1.1926 C   0  0  0  0  0  0  0  0  0  0  0  0
   -7.7986    0.8856   -0.7771 O   0  0  0  0  0  0  0  0  0  0  0  0
   -5.2694    3.6927   -3.7457 O   0  0  0  0  0  0  0  0  0  0  0  0
    0.5914    0.6136    1.0598 C   0  0  1  0  0  0  0  0  0  0  0  0
    1.7251   -0.5299   -2.8559 H   0  0  0  0  0  0  0  0  0  0  0  0
    0.9798    0.7503   -1.9021 H   0  0  0  0  0  0  0  0  0  0  0  0
    2.5385    1.0166   -2.6625 H   0  0  0  0  0  0  0  0  0  0  0  0
    2.8223    0.6267   -0.2500 H   0  0  0  0  0  0  0  0  0  0  0  0
    3.9522   -1.7620   -1.7348 H   0  0  0  0  0  0  0  0  0  0  0  0
    4.4403   -0.1255   -2.1169 H   0  0  0  0  0  0  0  0  0  0  0  0
    4.6695   -1.3273    0.6719 H   0  0  0  0  0  0  0  0  0  0  0  0
    5.2140    0.2604    0.1562 H   0  0  0  0  0  0  0  0  0  0  0  0
    6.7752   -0.7920   -1.4639 H   0  0  0  0  0  0  0  0  0  0  0  0
    7.1163   -1.1754    0.2274 H   0  0  0  0  0  0  0  0  0  0  0  0
    6.0241   -3.4807    1.0719 H   0  0  0  0  0  0  0  0  0  0  0  0
    4.6259   -3.5212   -0.0149 H   0  0  0  0  0  0  0  0  0  0  0  0
    5.8775   -4.7576   -0.1388 H   0  0  0  0  0  0  0  0  0  0  0  0
    7.9868   -4.3236   -1.3360 H   0  0  0  0  0  0  0  0  0  0  0  0
    8.4746   -2.6676   -1.7069 H   0  0  0  0  0  0  0  0  0  0  0  0
    8.3822   -3.2091   -0.0254 H   0  0  0  0  0  0  0  0  0  0  0  0
    5.9325   -3.9007   -2.5031 H   0  0  0  0  0  0  0  0  0  0  0  0
    2.6136   -1.6437    0.6542 H   0  0  0  0  0  0  0  0  0  0  0  0
    1.8065   -3.4409   -0.5106 H   0  0  0  0  0  0  0  0  0  0  0  0
    1.8602   -2.4549   -1.9544 H   0  0  0  0  0  0  0  0  0  0  0  0
   -0.4895   -3.3604   -0.4491 H   0  0  0  0  0  0  0  0  0  0  0  0
   -0.4714   -2.5586   -2.0103 H   0  0  0  0  0  0  0  0  0  0  0  0
   -0.5464   -0.4174   -1.0851 H   0  0  0  0  0  0  0  0  0  0  0  0
    0.7153   -2.7689    1.6613 H   0  0  0  0  0  0  0  0  0  0  0  0
    1.2596   -1.4097    2.6430 H   0  0  0  0  0  0  0  0  0  0  0  0
   -0.8943   -2.3329    3.4425 H   0  0  0  0  0  0  0  0  0  0  0  0
   -1.0926   -0.6630    2.9202 H   0  0  0  0  0  0  0  0  0  0  0  0
   -2.9374   -2.0322    2.0226 H   0  0  0  0  0  0  0  0  0  0  0  0
   -1.7797   -3.1590    1.3157 H   0  0  0  0  0  0  0  0  0  0  0  0
   -3.9043   -0.8040    0.4066 H   0  0  0  0  0  0  0  0  0  0  0  0
   -2.1601    0.5535   -1.7271 H   0  0  0  0  0  0  0  0  0  0  0  0
   -3.2321    1.9605   -3.1827 H   0  0  0  0  0  0  0  0  0  0  0  0
   -4.6400    1.1208   -3.8561 H   0  0  0  0  0  0  0  0  0  0  0  0
   -4.7392    3.3542   -1.7794 H   0  0  0  0  0  0  0  0  0  0  0  0
   -6.9610    1.7757   -3.1616 H   0  0  0  0  0  0  0  0  0  0  0  0
   -7.1984    3.1739   -2.1050 H   0  0  0  0  0  0  0  0  0  0  0  0
   -6.1217    1.9510   -0.2240 H   0  0  0  0  0  0  0  0  0  0  0  0
   -6.9177   -1.2867   -0.8623 H   0  0  0  0  0  0  0  0  0  0  0  0
   -5.2476   -1.8399   -1.4091 H   0  0  0  0  0  0  0  0  0  0  0  0
   -8.4043    1.6314   -0.7104 H   0  0  0  0  0  0  0  0  0  0  0  0
   -4.3871    3.9504   -4.0335 H   0  0  0  0  0  0  0  0  0  0  0  0
    1.4107    0.8408    1.7392 H   0  0  0  0  0  0  0  0  0  0  0  0
    0.6663    1.2673    0.1964 H   0  0  0  0  0  0  0  0  0  0  0  0
   -0.3459    0.8434    1.5609 H   0  0  0  0  0  0  0  0  0  0  0  0
  1  2  1  0
  2  3  1  0
  3  4  1  0
  4  5  1  0
  5  6  1  0
  6  7  1  0
  6  8  1  0
  6  9  1  6
  2 10  1  0
 10 11  1  0
 11 12  1  0
 12 13  1  0
 14 13  1  6
 14 15  1  0
 15 16  1  0
 16 17  1  0
 17 18  1  0
 18 19  2  0
 19 20  1  0
 20 21  2  0
 21 22  1  0
 22 23  1  0
 23 24  1  0
 24 25  1  0
 25 26  1  0
 26 27  2  0
 25 28  1  0
 23 29  1  0
 14 30  1  0
 14 10  1  0
 18 13  1  0
 26 21  1  0
  1 31  1  6
  1 32  1  0
  1 33  1  0
  2 34  1  1
  3 35  1  6
  3 36  1  0
  4 37  1  1
  4 38  1  0
  5 39  1  6
  5 40  1  0
  7 41  1  1
  7 42  1  0
  7 43  1  0
  8 44  1  6
  8 45  1  0
  8 46  1  0
  9 47  1  0
 10 48  1  1
 11 49  1  1
 11 50  1  0
 12 51  1  1
 12 52  1  0
 13 53  1  6
 15 54  1  6
 15 55  1  0
 16 56  1  1
 16 57  1  0
 17 58  1  1
 17 59  1  0
 19 60  1  0
 20 61  1  0
 22 62  1  6
 22 63  1  0
 23 64  1  1
 24 65  1  6
 24 66  1  0
 25 67  1  1
 27 68  1  0
 27 69  1  0
 28 70  1  0
 29 71  1  0
 30 72  1  1
 30 73  1  0
 30 74  1  0
M  END
$$$$
