 energy: -92.458216300768 gnorm: 0.000031292393 xtb: 6.5.1 (9af7eec)
     RDKit          3D

 74 76  0  0  0  0  0  0  0  0999 V2000
    1.2612    1.9498    1.0856 C   0  0  1  0  0  0  0  0  0  0  0  0
    1.9474    0.6125    1.3718 C   0  0  2  0  0  0  0  0  0  0  0  0
    2.5078    0.0451    0.0564 C   0  0  1  0  0  0  0  0  0  0  0  0
    3.6278    0.8687   -0.5886 C   0  0  2  0  0  0  0  0  0  0  0  0
    4.8058    1.1366    0.3473 C   0  0  1  0  0  0  0  0  0  0  0  0
    6.0735    1.6235   -0.3839 C   0  0  2  0  0  0  0  0  0  0  0  0
    7.1895    1.8439    0.6480 C   0  0  1  0  0  0  0  0  0  0  0  0
    5.8202    2.9201   -1.1520 C   0  0  1  0  0  0  0  0  0  0  0  0
    6.4848    0.6658   -1.3480 O   0  0  0  0  0  0  0  0  0  0  0  0
    1.0217   -0.4381    2.0424 C   0  0  2  0  0  0  0  0  0  0  0  0
   -0.0783    0.1724    2.9290 C   0  0  2  0  0  0  0  0  0  0  0  0
    0.5470    0.3460    4.3201 C   0  0  2  0  0  0  0  0  0  0  0  0
    1.8564   -0.4657    4.3019 C   0  0  2  0  0  0  0  0  0  0  0  0
    1.7484   -1.3721    3.0525 C   0  0  1  0  0  0  0  0  0  0  0  0
    0.8695   -2.6065    3.3359 C   0  0  1  0  0  0  0  0  0  0  0  0
    1.2321   -3.3344    4.6285 C   0  0  1  0  0  0  0  0  0  0  0  0
    1.1859   -2.3681    5.8160 C   0  0  2  0  0  0  0  0  0  0  0  0
    2.1533   -1.2576    5.5374 C   0  0  0  0  0  0  0  0  0  0  0  0
    3.2862   -1.1348    6.2307 C   0  0  0  0  0  0  0  0  0  0  0  0
    4.4265   -0.2684    5.9400 C   0  0  0  0  0  0  0  0  0  0  0  0
    4.4859    1.0602    5.8342 C   0  0  0  0  0  0  0  0  0  0  0  0
    3.3457    2.0003    6.0999 C   0  0  1  0  0  0  0  0  0  0  0  0
    3.1669    3.0112    4.9589 C   0  0  2  0  0  0  0  0  0  0  0  0
    4.4884    3.7147    4.6683 C   0  0  2  0  0  0  0  0  0  0  0  0
    5.5699    2.6954    4.3065 C   0  0  2  0  0  0  0  0  0  0  0  0
    5.7462    1.7299    5.4597 C   0  0  0  0  0  0  0  0  0  0  0  0
    6.9010    1.5044    6.0694 C   0  0  0  0  0  0  0  0  0  0  0  0
    6.7327    3.3987    3.9459 O   0  0  0  0  0  0  0  0  0  0  0  0
    2.2150    4.0010    5.2863 O   0  0  0  0  0  0  0  0  0  0  0  0
    3.1374   -1.8602    2.6457 C   0  0  1  0  0  0  0  0  0  0  0  0
    1.0140    2.4800    2.0016 H   0  0  0  0  0  0  0  0  0  0  0  0
    1.9323    2.5905    0.5205 H   0  0  0  0  0  0  0  0  0  0  0  0
    0.3566    1.8068    0.4981 H   0  0  0  0  0  0  0  0  0  0  0  0
    2.7791    0.8204    2.0482 H   0  0  0  0  0  0  0  0  0  0  0  0
    2.8808   -0.9633    0.2305 H   0  0  0  0  0  0  0  0  0  0  0  0
    1.6863   -0.0333   -0.6608 H   0  0  0  0  0  0  0  0  0  0  0  0
    3.2319    1.8163   -0.9533 H   0  0  0  0  0  0  0  0  0  0  0  0
    3.9979    0.3181   -1.4570 H   0  0  0  0  0  0  0  0  0  0  0  0
    4.5352    1.8874    1.0911 H   0  0  0  0  0  0  0  0  0  0  0  0
    5.0560    0.2102    0.8754 H   0  0  0  0  0  0  0  0  0  0  0  0
    7.3498    0.9421    1.2392 H   0  0  0  0  0  0  0  0  0  0  0  0
    8.1173    2.0911    0.1372 H   0  0  0  0  0  0  0  0  0  0  0  0
    6.9306    2.6611    1.3157 H   0  0  0  0  0  0  0  0  0  0  0  0
    6.7571    3.2882   -1.5608 H   0  0  0  0  0  0  0  0  0  0  0  0
    5.1415    2.7334   -1.9784 H   0  0  0  0  0  0  0  0  0  0  0  0
    5.3971    3.6740   -0.4949 H   0  0  0  0  0  0  0  0  0  0  0  0
    6.6802   -0.1613   -0.8941 H   0  0  0  0  0  0  0  0  0  0  0  0
    0.5616   -1.0304    1.2456 H   0  0  0  0  0  0  0  0  0  0  0  0
   -0.9263   -0.5113    2.9773 H   0  0  0  0  0  0  0  0  0  0  0  0
   -0.4666    1.1075    2.5394 H   0  0  0  0  0  0  0  0  0  0  0  0
   -0.1300   -0.0006    5.1004 H   0  0  0  0  0  0  0  0  0  0  0  0
    0.7552    1.3975    4.5171 H   0  0  0  0  0  0  0  0  0  0  0  0
    2.6922    0.2167    4.1331 H   0  0  0  0  0  0  0  0  0  0  0  0
   -0.1769   -2.3145    3.4075 H   0  0  0  0  0  0  0  0  0  0  0  0
    0.9563   -3.2980    2.4940 H   0  0  0  0  0  0  0  0  0  0  0  0
    0.5270   -4.1534    4.7887 H   0  0  0  0  0  0  0  0  0  0  0  0
    2.2309   -3.7684    4.5595 H   0  0  0  0  0  0  0  0  0  0  0  0
    1.4491   -2.8887    6.7381 H   0  0  0  0  0  0  0  0  0  0  0  0
    0.1693   -1.9831    5.9219 H   0  0  0  0  0  0  0  0  0  0  0  0
    3.4663   -1.8274    7.0473 H   0  0  0  0  0  0  0  0  0  0  0  0
    5.3532   -0.8191    5.8053 H   0  0  0  0  0  0  0  0  0  0  0  0
    2.4250    1.4401    6.2729 H   0  0  0  0  0  0  0  0  0  0  0  0
    3.5762    2.5690    7.0075 H   0  0  0  0  0  0  0  0  0  0  0  0
    2.8430    2.4787    4.0473 H   0  0  0  0  0  0  0  0  0  0  0  0
    4.8045    4.2778    5.5470 H   0  0  0  0  0  0  0  0  0  0  0  0
    4.3614    4.4192    3.8465 H   0  0  0  0  0  0  0  0  0  0  0  0
    5.2160    2.1043    3.4380 H   0  0  0  0  0  0  0  0  0  0  0  0
    6.9694    0.8189    6.8965 H   0  0  0  0  0  0  0  0  0  0  0  0
    7.8101    2.0140    5.7967 H   0  0  0  0  0  0  0  0  0  0  0  0
    7.4488    2.7665    3.8210 H   0  0  0  0  0  0  0  0  0  0  0  0
    1.4118    3.5713    5.6003 H   0  0  0  0  0  0  0  0  0  0  0  0
    3.8019   -1.0345    2.4115 H   0  0  0  0  0  0  0  0  0  0  0  0
    3.5836   -2.4081    3.4727 H   0  0  0  0  0  0  0  0  0  0  0  0
    3.0817   -2.5267    1.7876 H   0  0  0  0  0  0  0  0  0  0  0  0
  1  2  1  0
  2  3  1  0
  3  4  1  0
  4  5  1  0
  5  6  1  0
  6  7  1  0
  6  8  1  0
  6  9  1  6
  2 10  1  0
 10 11  1  0
 11 12  1  0
 12 13  1  0
 14 13  1  1
 14 15  1  0
 15 16  1  0
 16 17  1  0
 17 18  1  0
 18 19  2  0
 19 20  1  0
 20 21  2  0
 21 22  1  0
 22 23  1  0
 23 24  1  0
 24 25  1  0
 25 26  1  0
 26 27  2  0
 25 28  1  0
 23 29  1  0
 14 30  1  0
 14 10  1  0
 18 13  1  0
 26 21  1  0
  1 31  1  1
  1 32  1  0
  1 33  1  0
  2 34  1  1
  3 35  1  1
  3 36  1  0
  4 37  1  6
  4 38  1  0
  5 39  1  1
  5 40  1  0
  7 41  1  1
  7 42  1  0
  7 43  1  0
  8 44  1  6
  8 45  1  0
  8 46  1  0
  9 47  1  0
 10 48  1  6
 11 49  1  1
 11 50  1  0
 12 51  1  1
 12 52  1  0
 13 53  1  6
 15 54  1  1
 15 55  1  0
 16 56  1  1
 16 57  1  0
 17 58  1  1
 17 59  1  0
 19 60  1  0
 20 61  1  0
 22 62  1  1
 22 63  1  0
 23 64  1  6
 24 65  1  1
 24 66  1  0
 25 67  1  6
 27 68  1  0
 27 69  1  0
 28 70  1  0
 29 71  1  0
 30 72  1  6
 30 73  1  0
 30 74  1  0
M  END
$$$$
