 energy: -92.465890382716 gnorm: 0.000047090018 xtb: 6.5.1 (9af7eec)
     RDKit          3D

 74 76  0  0  0  0  0  0  0  0999 V2000
    3.9580    0.2070    1.7534 C   0  0  1  0  0  0  0  0  0  0  0  0
    2.6838   -0.6190    1.5909 C   0  0  2  0  0  0  0  0  0  0  0  0
    2.4090   -0.9166    0.1082 C   0  0  1  0  0  0  0  0  0  0  0  0
    3.5362   -1.6446   -0.6248 C   0  0  2  0  0  0  0  0  0  0  0  0
    3.0373   -2.5115   -1.7845 C   0  0  1  0  0  0  0  0  0  0  0  0
    2.2083   -1.8089   -2.8756 C   0  0  2  0  0  0  0  0  0  0  0  0
    2.0872   -2.7546   -4.0835 C   0  0  1  0  0  0  0  0  0  0  0  0
    2.8380   -0.4911   -3.3352 C   0  0  1  0  0  0  0  0  0  0  0  0
    0.9155   -1.5847   -2.3350 O   0  0  0  0  0  0  0  0  0  0  0  0
    1.4220    0.0521    2.1808 C   0  0  2  0  0  0  0  0  0  0  0  0
    1.5551    1.4506    2.8017 C   0  0  2  0  0  0  0  0  0  0  0  0
    0.2900    1.6261    3.6634 C   0  0  2  0  0  0  0  0  0  0  0  0
   -0.4571    0.2868    3.6169 C   0  0  2  0  0  0  0  0  0  0  0  0
    0.6493   -0.7459    3.2532 C   0  0  1  0  0  0  0  0  0  0  0  0
    0.0291   -2.0417    2.7036 C   0  0  1  0  0  0  0  0  0  0  0  0
   -1.3733   -2.2519    3.2703 C   0  0  1  0  0  0  0  0  0  0  0  0
   -2.2981   -1.1438    2.7465 C   0  0  2  0  0  0  0  0  0  0  0  0
   -1.5245    0.1326    2.5685 C   0  0  0  0  0  0  0  0  0  0  0  0
   -1.6291    0.9533    1.5129 C   0  0  0  0  0  0  0  0  0  0  0  0
   -2.4304    0.7592    0.3360 C   0  0  0  0  0  0  0  0  0  0  0  0
   -2.3379    1.4757   -0.7994 C   0  0  0  0  0  0  0  0  0  0  0  0
   -1.4580    2.6725   -1.0197 C   0  0  1  0  0  0  0  0  0  0  0  0
   -0.5086    2.4607   -2.2132 C   0  0  2  0  0  0  0  0  0  0  0  0
   -1.3236    2.1172   -3.4677 C   0  0  2  0  0  0  0  0  0  0  0  0
   -2.2634    0.9304   -3.2514 C   0  0  2  0  0  0  0  0  0  0  0  0
   -3.0937    1.0753   -1.9936 C   0  0  0  0  0  0  0  0  0  0  0  0
   -4.3881    0.7785   -1.9838 C   0  0  0  0  0  0  0  0  0  0  0  0
   -1.4617   -0.2472   -3.1719 O   0  0  0  0  0  0  0  0  0  0  0  0
    0.4902    1.5205   -1.9281 O   0  0  0  0  0  0  0  0  0  0  0  0
    1.4928   -1.0614    4.4879 C   0  0  1  0  0  0  0  0  0  0  0  0
    4.7997   -0.3187    1.3099 H   0  0  0  0  0  0  0  0  0  0  0  0
    3.8583    1.1703    1.2600 H   0  0  0  0  0  0  0  0  0  0  0  0
    4.1885    0.3708    2.8033 H   0  0  0  0  0  0  0  0  0  0  0  0
    2.8448   -1.5769    2.0973 H   0  0  0  0  0  0  0  0  0  0  0  0
    1.5153   -1.5373    0.0438 H   0  0  0  0  0  0  0  0  0  0  0  0
    2.1873    0.0217   -0.4010 H   0  0  0  0  0  0  0  0  0  0  0  0
    4.0468   -2.3138    0.0739 H   0  0  0  0  0  0  0  0  0  0  0  0
    4.2727   -0.9299   -0.9937 H   0  0  0  0  0  0  0  0  0  0  0  0
    3.9016   -2.9776   -2.2627 H   0  0  0  0  0  0  0  0  0  0  0  0
    2.4076   -3.3066   -1.3792 H   0  0  0  0  0  0  0  0  0  0  0  0
    3.0587   -2.9192   -4.5415 H   0  0  0  0  0  0  0  0  0  0  0  0
    1.6784   -3.7121   -3.7690 H   0  0  0  0  0  0  0  0  0  0  0  0
    1.4202   -2.3245   -4.8292 H   0  0  0  0  0  0  0  0  0  0  0  0
    3.8880   -0.6362   -3.5747 H   0  0  0  0  0  0  0  0  0  0  0  0
    2.3267   -0.1263   -4.2248 H   0  0  0  0  0  0  0  0  0  0  0  0
    2.7451    0.2655   -2.5623 H   0  0  0  0  0  0  0  0  0  0  0  0
    0.3935   -1.0892   -2.9803 H   0  0  0  0  0  0  0  0  0  0  0  0
    0.7202    0.1651    1.3493 H   0  0  0  0  0  0  0  0  0  0  0  0
    1.6281    2.2129    2.0269 H   0  0  0  0  0  0  0  0  0  0  0  0
    2.4432    1.5284    3.4249 H   0  0  0  0  0  0  0  0  0  0  0  0
   -0.3374    2.4474    3.3201 H   0  0  0  0  0  0  0  0  0  0  0  0
    0.5616    1.8523    4.6954 H   0  0  0  0  0  0  0  0  0  0  0  0
   -0.8926    0.0608    4.5938 H   0  0  0  0  0  0  0  0  0  0  0  0
   -0.0459   -1.9887    1.6162 H   0  0  0  0  0  0  0  0  0  0  0  0
    0.6647   -2.8934    2.9508 H   0  0  0  0  0  0  0  0  0  0  0  0
   -1.7604   -3.2278    2.9714 H   0  0  0  0  0  0  0  0  0  0  0  0
   -1.3328   -2.2383    4.3608 H   0  0  0  0  0  0  0  0  0  0  0  0
   -3.1198   -0.9774    3.4504 H   0  0  0  0  0  0  0  0  0  0  0  0
   -2.7369   -1.4578    1.7999 H   0  0  0  0  0  0  0  0  0  0  0  0
   -0.9970    1.8268    1.4941 H   0  0  0  0  0  0  0  0  0  0  0  0
   -3.1087   -0.0837    0.3304 H   0  0  0  0  0  0  0  0  0  0  0  0
   -2.0902    3.5393   -1.2357 H   0  0  0  0  0  0  0  0  0  0  0  0
   -0.8598    2.8981   -0.1393 H   0  0  0  0  0  0  0  0  0  0  0  0
    0.0357    3.3964   -2.3970 H   0  0  0  0  0  0  0  0  0  0  0  0
   -0.6405    1.8719   -4.2830 H   0  0  0  0  0  0  0  0  0  0  0  0
   -1.9171    2.9854   -3.7568 H   0  0  0  0  0  0  0  0  0  0  0  0
   -2.9334    0.8396   -4.1228 H   0  0  0  0  0  0  0  0  0  0  0  0
   -4.9767    0.8639   -1.0865 H   0  0  0  0  0  0  0  0  0  0  0  0
   -4.9082    0.4649   -2.8742 H   0  0  0  0  0  0  0  0  0  0  0  0
   -2.0053   -0.9737   -2.8485 H   0  0  0  0  0  0  0  0  0  0  0  0
    0.0880    0.6406   -1.8725 H   0  0  0  0  0  0  0  0  0  0  0  0
    0.8990   -1.6133    5.2146 H   0  0  0  0  0  0  0  0  0  0  0  0
    2.3517   -1.6730    4.2213 H   0  0  0  0  0  0  0  0  0  0  0  0
    1.8556   -0.1557    4.9638 H   0  0  0  0  0  0  0  0  0  0  0  0
  1  2  1  0
  2  3  1  0
  3  4  1  0
  4  5  1  0
  5  6  1  0
  6  7  1  0
  6  8  1  0
  6  9  1  1
  2 10  1  0
 10 11  1  0
 11 12  1  0
 12 13  1  0
 14 13  1  1
 14 15  1  0
 15 16  1  0
 16 17  1  0
 17 18  1  0
 18 19  2  0
 19 20  1  0
 20 21  2  0
 21 22  1  0
 22 23  1  0
 23 24  1  0
 24 25  1  0
 25 26  1  0
 26 27  2  0
 25 28  1  0
 23 29  1  0
 14 30  1  0
 14 10  1  0
 18 13  1  0
 26 21  1  0
  1 31  1  6
  1 32  1  0
  1 33  1  0
  2 34  1  1
  3 35  1  1
  3 36  1  0
  4 37  1  1
  4 38  1  0
  5 39  1  6
  5 40  1  0
  7 41  1  6
  7 42  1  0
  7 43  1  0
  8 44  1  6
  8 45  1  0
  8 46  1  0
  9 47  1  0
 10 48  1  6
 11 49  1  6
 11 50  1  0
 12 51  1  6
 12 52  1  0
 13 53  1  1
 15 54  1  6
 15 55  1  0
 16 56  1  1
 16 57  1  0
 17 58  1  1
 17 59  1  0
 19 60  1  0
 20 61  1  0
 22 62  1  6
 22 63  1  0
 23 64  1  6
 24 65  1  6
 24 66  1  0
 25 67  1  6
 27 68  1  0
 27 69  1  0
 28 70  1  0
 29 71  1  0
 30 72  1  1
 30 73  1  0
 30 74  1  0
M  END
$$$$
