 energy: -92.463721588989 gnorm: 0.000030376290 xtb: 6.5.1 (9af7eec)
     RDKit          3D

 74 76  0  0  0  0  0  0  0  0999 V2000
    2.4754    0.7142   -1.0696 C   0  0  1  0  0  0  0  0  0  0  0  0
    2.3576    0.1279    0.3402 C   0  0  2  0  0  0  0  0  0  0  0  0
    3.0576   -1.2306    0.4558 C   0  0  1  0  0  0  0  0  0  0  0  0
    4.5488   -1.2424    0.1150 C   0  0  2  0  0  0  0  0  0  0  0  0
    5.1168   -2.6677    0.2077 C   0  0  1  0  0  0  0  0  0  0  0  0
    5.1803   -3.4772   -1.1080 C   0  0  2  0  0  0  0  0  0  0  0  0
    6.3458   -2.9970   -1.9776 C   0  0  1  0  0  0  0  0  0  0  0  0
    3.8822   -3.4401   -1.9116 C   0  0  1  0  0  0  0  0  0  0  0  0
    5.3688   -4.8553   -0.7737 O   0  0  0  0  0  0  0  0  0  0  0  0
    0.8962    0.1244    0.8681 C   0  0  2  0  0  0  0  0  0  0  0  0
    0.8738   -0.0943    2.4005 C   0  0  2  0  0  0  0  0  0  0  0  0
    0.2510   -1.4748    2.6689 C   0  0  2  0  0  0  0  0  0  0  0  0
    0.0824   -2.1176    1.2856 C   0  0  2  0  0  0  0  0  0  0  0  0
   -0.1262   -0.9189    0.3394 C   0  0  1  0  0  0  0  0  0  0  0  0
   -1.5465   -0.3592    0.5512 C   0  0  1  0  0  0  0  0  0  0  0  0
   -2.6348   -1.4209    0.3989 C   0  0  1  0  0  0  0  0  0  0  0  0
   -2.3906   -2.6182    1.3232 C   0  0  2  0  0  0  0  0  0  0  0  0
   -0.9970   -3.1465    1.1604 C   0  0  0  0  0  0  0  0  0  0  0  0
   -0.7511   -4.4302    0.8536 C   0  0  0  0  0  0  0  0  0  0  0  0
    0.5584   -5.0121    0.6916 C   0  0  0  0  0  0  0  0  0  0  0  0
    0.8679   -6.2172    0.1934 C   0  0  0  0  0  0  0  0  0  0  0  0
    2.2999   -6.6157   -0.0153 C   0  0  1  0  0  0  0  0  0  0  0  0
    2.5288   -6.8955   -1.5090 C   0  0  2  0  0  0  0  0  0  0  0  0
    1.6043   -8.0287   -1.9426 C   0  0  2  0  0  0  0  0  0  0  0  0
    0.1403   -7.6305   -1.7290 C   0  0  2  0  0  0  0  0  0  0  0  0
   -0.0902   -7.2265   -0.2835 C   0  0  0  0  0  0  0  0  0  0  0  0
   -1.0280   -7.7569    0.4895 C   0  0  0  0  0  0  0  0  0  0  0  0
   -0.6644   -8.7005   -2.1634 O   0  0  0  0  0  0  0  0  0  0  0  0
    3.8635   -7.2436   -1.7786 O   0  0  0  0  0  0  0  0  0  0  0  0
    0.0157   -1.3229   -1.1255 C   0  0  1  0  0  0  0  0  0  0  0  0
    1.7989    1.5577   -1.1870 H   0  0  0  0  0  0  0  0  0  0  0  0
    3.4865    1.0770   -1.2411 H   0  0  0  0  0  0  0  0  0  0  0  0
    2.2447   -0.0172   -1.8369 H   0  0  0  0  0  0  0  0  0  0  0  0
    2.8868    0.8251    1.0048 H   0  0  0  0  0  0  0  0  0  0  0  0
    2.9554   -1.5845    1.4835 H   0  0  0  0  0  0  0  0  0  0  0  0
    2.5672   -1.9429   -0.1998 H   0  0  0  0  0  0  0  0  0  0  0  0
    5.0806   -0.5975    0.8181 H   0  0  0  0  0  0  0  0  0  0  0  0
    4.7173   -0.8421   -0.8837 H   0  0  0  0  0  0  0  0  0  0  0  0
    6.1330   -2.6270    0.6105 H   0  0  0  0  0  0  0  0  0  0  0  0
    4.5155   -3.2430    0.9169 H   0  0  0  0  0  0  0  0  0  0  0  0
    7.2874   -3.0781   -1.4359 H   0  0  0  0  0  0  0  0  0  0  0  0
    6.4117   -3.6040   -2.8776 H   0  0  0  0  0  0  0  0  0  0  0  0
    6.2047   -1.9596   -2.2661 H   0  0  0  0  0  0  0  0  0  0  0  0
    3.9860   -4.0902   -2.7773 H   0  0  0  0  0  0  0  0  0  0  0  0
    3.0567   -3.8085   -1.3087 H   0  0  0  0  0  0  0  0  0  0  0  0
    3.6678   -2.4338   -2.2560 H   0  0  0  0  0  0  0  0  0  0  0  0
    6.2292   -4.9596   -0.3532 H   0  0  0  0  0  0  0  0  0  0  0  0
    0.5090    1.1237    0.6420 H   0  0  0  0  0  0  0  0  0  0  0  0
    0.2905    0.6879    2.8872 H   0  0  0  0  0  0  0  0  0  0  0  0
    1.8812   -0.0355    2.8114 H   0  0  0  0  0  0  0  0  0  0  0  0
   -0.7098   -1.3733    3.1710 H   0  0  0  0  0  0  0  0  0  0  0  0
    0.8853   -2.0907    3.3069 H   0  0  0  0  0  0  0  0  0  0  0  0
    1.0282   -2.5756    1.0186 H   0  0  0  0  0  0  0  0  0  0  0  0
   -1.6226    0.0752    1.5481 H   0  0  0  0  0  0  0  0  0  0  0  0
   -1.7260    0.4425   -0.1699 H   0  0  0  0  0  0  0  0  0  0  0  0
   -3.6048   -0.9752    0.6326 H   0  0  0  0  0  0  0  0  0  0  0  0
   -2.6805   -1.7694   -0.6340 H   0  0  0  0  0  0  0  0  0  0  0  0
   -3.1215   -3.4026    1.1174 H   0  0  0  0  0  0  0  0  0  0  0  0
   -2.5346   -2.2975    2.3594 H   0  0  0  0  0  0  0  0  0  0  0  0
   -1.5877   -5.0991    0.6994 H   0  0  0  0  0  0  0  0  0  0  0  0
    1.3976   -4.3973    0.9882 H   0  0  0  0  0  0  0  0  0  0  0  0
    2.9811   -5.8315    0.3218 H   0  0  0  0  0  0  0  0  0  0  0  0
    2.5266   -7.5294    0.5408 H   0  0  0  0  0  0  0  0  0  0  0  0
    2.2591   -5.9886   -2.0794 H   0  0  0  0  0  0  0  0  0  0  0  0
    1.8210   -8.9264   -1.3633 H   0  0  0  0  0  0  0  0  0  0  0  0
    1.7634   -8.2621   -2.9952 H   0  0  0  0  0  0  0  0  0  0  0  0
   -0.0672   -6.7367   -2.3501 H   0  0  0  0  0  0  0  0  0  0  0  0
   -1.1403   -7.4537    1.5163 H   0  0  0  0  0  0  0  0  0  0  0  0
   -1.6924   -8.5319    0.1446 H   0  0  0  0  0  0  0  0  0  0  0  0
   -1.5879   -8.4706   -2.0160 H   0  0  0  0  0  0  0  0  0  0  0  0
    4.4263   -6.5093   -1.4858 H   0  0  0  0  0  0  0  0  0  0  0  0
    0.9839   -1.7598   -1.3401 H   0  0  0  0  0  0  0  0  0  0  0  0
   -0.7297   -2.0754   -1.3703 H   0  0  0  0  0  0  0  0  0  0  0  0
   -0.1352   -0.4636   -1.7745 H   0  0  0  0  0  0  0  0  0  0  0  0
  1  2  1  0
  2  3  1  0
  3  4  1  0
  4  5  1  0
  5  6  1  0
  6  7  1  0
  6  8  1  0
  6  9  1  1
  2 10  1  0
 10 11  1  0
 11 12  1  0
 12 13  1  0
 14 13  1  1
 14 15  1  0
 15 16  1  0
 16 17  1  0
 17 18  1  0
 18 19  2  0
 19 20  1  0
 20 21  2  0
 21 22  1  0
 22 23  1  0
 23 24  1  0
 24 25  1  0
 25 26  1  0
 26 27  2  0
 25 28  1  0
 23 29  1  0
 14 30  1  0
 14 10  1  0
 18 13  1  0
 26 21  1  0
  1 31  1  1
  1 32  1  0
  1 33  1  0
  2 34  1  1
  3 35  1  1
  3 36  1  0
  4 37  1  1
  4 38  1  0
  5 39  1  1
  5 40  1  0
  7 41  1  1
  7 42  1  0
  7 43  1  0
  8 44  1  6
  8 45  1  0
  8 46  1  0
  9 47  1  0
 10 48  1  1
 11 49  1  1
 11 50  1  0
 12 51  1  1
 12 52  1  0
 13 53  1  6
 15 54  1  1
 15 55  1  0
 16 56  1  1
 16 57  1  0
 17 58  1  6
 17 59  1  0
 19 60  1  0
 20 61  1  0
 22 62  1  1
 22 63  1  0
 23 64  1  6
 24 65  1  1
 24 66  1  0
 25 67  1  6
 27 68  1  0
 27 69  1  0
 28 70  1  0
 29 71  1  0
 30 72  1  1
 30 73  1  0
 30 74  1  0
M  END
$$$$
