 energy: -92.466229011722 gnorm: 0.000037028003 xtb: 6.5.1 (9af7eec)
     RDKit          3D

 74 76  0  0  0  0  0  0  0  0999 V2000
    3.9104   -0.4284    2.5251 C   0  0  1  0  0  0  0  0  0  0  0  0
    2.6467   -0.6048    1.6836 C   0  0  2  0  0  0  0  0  0  0  0  0
    2.8695   -0.0442    0.2701 C   0  0  1  0  0  0  0  0  0  0  0  0
    3.9489   -0.7712   -0.5278 C   0  0  2  0  0  0  0  0  0  0  0  0
    3.9469   -0.2853   -1.9755 C   0  0  1  0  0  0  0  0  0  0  0  0
    5.0652   -0.8823   -2.8428 C   0  0  2  0  0  0  0  0  0  0  0  0
    4.9621   -0.3096   -4.2638 C   0  0  1  0  0  0  0  0  0  0  0  0
    4.9834   -2.4123   -2.9050 C   0  0  1  0  0  0  0  0  0  0  0  0
    6.2957   -0.4831   -2.2532 O   0  0  0  0  0  0  0  0  0  0  0  0
    1.3798    0.0401    2.2770 C   0  0  2  0  0  0  0  0  0  0  0  0
    1.5582    1.3591    3.0399 C   0  0  2  0  0  0  0  0  0  0  0  0
    0.2874    1.5071    3.8960 C   0  0  2  0  0  0  0  0  0  0  0  0
   -0.5372    0.2330    3.6732 C   0  0  2  0  0  0  0  0  0  0  0  0
    0.5050   -0.8258    3.2104 C   0  0  1  0  0  0  0  0  0  0  0  0
   -0.1866   -1.9781    2.4608 C   0  0  1  0  0  0  0  0  0  0  0  0
   -1.6157   -2.1712    2.9639 C   0  0  1  0  0  0  0  0  0  0  0  0
   -2.4560   -0.9405    2.5944 C   0  0  2  0  0  0  0  0  0  0  0  0
   -1.5911    0.2908    2.6037 C   0  0  0  0  0  0  0  0  0  0  0  0
   -1.6285    1.2269    1.6505 C   0  0  0  0  0  0  0  0  0  0  0  0
   -2.5192    1.2392    0.5084 C   0  0  0  0  0  0  0  0  0  0  0  0
   -2.1815    1.6785   -0.7134 C   0  0  0  0  0  0  0  0  0  0  0  0
   -0.8123    2.1664   -1.0938 C   0  0  1  0  0  0  0  0  0  0  0  0
   -0.2470    1.3666   -2.2838 C   0  0  2  0  0  0  0  0  0  0  0  0
   -1.2222    1.4368   -3.4634 C   0  0  2  0  0  0  0  0  0  0  0  0
   -2.6172    0.9412   -3.0763 C   0  0  2  0  0  0  0  0  0  0  0  0
   -3.1360    1.6205   -1.8270 C   0  0  0  0  0  0  0  0  0  0  0  0
   -4.3903    2.0486   -1.7405 C   0  0  0  0  0  0  0  0  0  0  0  0
   -2.5336   -0.4662   -2.8510 O   0  0  0  0  0  0  0  0  0  0  0  0
    0.0575    0.0428   -1.9248 O   0  0  0  0  0  0  0  0  0  0  0  0
    1.2520   -1.3825    4.4205 C   0  0  1  0  0  0  0  0  0  0  0  0
    4.6965   -1.0787    2.1495 H   0  0  0  0  0  0  0  0  0  0  0  0
    4.2683    0.5970    2.4686 H   0  0  0  0  0  0  0  0  0  0  0  0
    3.7389   -0.6805    3.5670 H   0  0  0  0  0  0  0  0  0  0  0  0
    2.4461   -1.6779    1.5873 H   0  0  0  0  0  0  0  0  0  0  0  0
    1.9367   -0.1212   -0.2936 H   0  0  0  0  0  0  0  0  0  0  0  0
    3.1263    1.0150    0.3448 H   0  0  0  0  0  0  0  0  0  0  0  0
    3.7460   -1.8429   -0.4962 H   0  0  0  0  0  0  0  0  0  0  0  0
    4.9366   -0.5922   -0.1040 H   0  0  0  0  0  0  0  0  0  0  0  0
    2.9821   -0.5091   -2.4327 H   0  0  0  0  0  0  0  0  0  0  0  0
    4.0786    0.7985   -1.9743 H   0  0  0  0  0  0  0  0  0  0  0  0
    4.0065   -0.5725   -4.7081 H   0  0  0  0  0  0  0  0  0  0  0  0
    5.0501    0.7739   -4.2345 H   0  0  0  0  0  0  0  0  0  0  0  0
    5.7588   -0.7033   -4.8942 H   0  0  0  0  0  0  0  0  0  0  0  0
    3.9847   -2.7246   -3.1958 H   0  0  0  0  0  0  0  0  0  0  0  0
    5.6953   -2.8005   -3.6329 H   0  0  0  0  0  0  0  0  0  0  0  0
    5.2197   -2.8397   -1.9344 H   0  0  0  0  0  0  0  0  0  0  0  0
    7.0158   -0.8436   -2.7817 H   0  0  0  0  0  0  0  0  0  0  0  0
    0.7302    0.2565    1.4226 H   0  0  0  0  0  0  0  0  0  0  0  0
    1.6856    2.1937    2.3505 H   0  0  0  0  0  0  0  0  0  0  0  0
    2.4375    1.3261    3.6797 H   0  0  0  0  0  0  0  0  0  0  0  0
   -0.2835    2.3995    3.6429 H   0  0  0  0  0  0  0  0  0  0  0  0
    0.5483    1.5891    4.9518 H   0  0  0  0  0  0  0  0  0  0  0  0
   -1.0138   -0.0784    4.6068 H   0  0  0  0  0  0  0  0  0  0  0  0
   -0.2215   -1.7606    1.3911 H   0  0  0  0  0  0  0  0  0  0  0  0
    0.3805   -2.9009    2.5932 H   0  0  0  0  0  0  0  0  0  0  0  0
   -2.0556   -3.0656    2.5186 H   0  0  0  0  0  0  0  0  0  0  0  0
   -1.6036   -2.3189    4.0452 H   0  0  0  0  0  0  0  0  0  0  0  0
   -3.2792   -0.8213    3.3060 H   0  0  0  0  0  0  0  0  0  0  0  0
   -2.8882   -1.0828    1.6043 H   0  0  0  0  0  0  0  0  0  0  0  0
   -0.9200    2.0408    1.6890 H   0  0  0  0  0  0  0  0  0  0  0  0
   -3.5128    0.8328    0.6484 H   0  0  0  0  0  0  0  0  0  0  0  0
   -0.8701    3.2188   -1.3870 H   0  0  0  0  0  0  0  0  0  0  0  0
   -0.1186    2.0713   -0.2607 H   0  0  0  0  0  0  0  0  0  0  0  0
    0.7112    1.8148   -2.5780 H   0  0  0  0  0  0  0  0  0  0  0  0
   -0.8480    0.8141   -4.2780 H   0  0  0  0  0  0  0  0  0  0  0  0
   -1.2995    2.4670   -3.8133 H   0  0  0  0  0  0  0  0  0  0  0  0
   -3.3106    1.1267   -3.9128 H   0  0  0  0  0  0  0  0  0  0  0  0
   -4.7645    2.5119   -0.8440 H   0  0  0  0  0  0  0  0  0  0  0  0
   -5.0766    1.9741   -2.5684 H   0  0  0  0  0  0  0  0  0  0  0  0
   -3.3897   -0.7791   -2.5407 H   0  0  0  0  0  0  0  0  0  0  0  0
   -0.7671   -0.4638   -1.9764 H   0  0  0  0  0  0  0  0  0  0  0  0
    0.5611   -1.9201    5.0684 H   0  0  0  0  0  0  0  0  0  0  0  0
    2.0247   -2.0791    4.1045 H   0  0  0  0  0  0  0  0  0  0  0  0
    1.7118   -0.5891    5.0022 H   0  0  0  0  0  0  0  0  0  0  0  0
  1  2  1  0
  2  3  1  0
  3  4  1  0
  4  5  1  0
  5  6  1  0
  6  7  1  0
  6  8  1  0
  6  9  1  1
  2 10  1  0
 10 11  1  0
 11 12  1  0
 12 13  1  0
 14 13  1  1
 14 15  1  0
 15 16  1  0
 16 17  1  0
 17 18  1  0
 18 19  2  0
 19 20  1  0
 20 21  2  0
 21 22  1  0
 22 23  1  0
 23 24  1  0
 24 25  1  0
 25 26  1  0
 26 27  2  0
 25 28  1  0
 23 29  1  0
 14 30  1  0
 14 10  1  0
 18 13  1  0
 26 21  1  0
  1 31  1  6
  1 32  1  0
  1 33  1  0
  2 34  1  6
  3 35  1  6
  3 36  1  0
  4 37  1  6
  4 38  1  0
  5 39  1  6
  5 40  1  0
  7 41  1  6
  7 42  1  0
  7 43  1  0
  8 44  1  6
  8 45  1  0
  8 46  1  0
  9 47  1  0
 10 48  1  6
 11 49  1  6
 11 50  1  0
 12 51  1  6
 12 52  1  0
 13 53  1  1
 15 54  1  6
 15 55  1  0
 16 56  1  6
 16 57  1  0
 17 58  1  1
 17 59  1  0
 19 60  1  0
 20 61  1  0
 22 62  1  6
 22 63  1  0
 23 64  1  6
 24 65  1  6
 24 66  1  0
 25 67  1  6
 27 68  1  0
 27 69  1  0
 28 70  1  0
 29 71  1  0
 30 72  1  1
 30 73  1  0
 30 74  1  0
M  END
$$$$
