 energy: -92.466137225368 gnorm: 0.000049725588 xtb: 6.5.1 (9af7eec)
     RDKit          3D

 74 76  0  0  0  0  0  0  0  0999 V2000
    2.7070   -1.9971    2.0543 C   0  0  1  0  0  0  0  0  0  0  0  0
    1.5464   -1.8785    1.0626 C   0  0  2  0  0  0  0  0  0  0  0  0
    2.0783   -1.4280   -0.3038 C   0  0  1  0  0  0  0  0  0  0  0  0
    3.0696   -2.4138   -0.9248 C   0  0  2  0  0  0  0  0  0  0  0  0
    3.2281   -2.2781   -2.4399 C   0  0  1  0  0  0  0  0  0  0  0  0
    3.8975   -1.0069   -2.9974 C   0  0  2  0  0  0  0  0  0  0  0  0
    5.1064   -0.5720   -2.1619 C   0  0  1  0  0  0  0  0  0  0  0  0
    2.9147    0.1599   -3.1465 C   0  0  1  0  0  0  0  0  0  0  0  0
    4.3403   -1.4037   -4.2934 O   0  0  0  0  0  0  0  0  0  0  0  0
    0.4902   -0.9115    1.6270 C   0  0  2  0  0  0  0  0  0  0  0  0
   -0.0430   -1.3964    2.9923 C   0  0  2  0  0  0  0  0  0  0  0  0
   -1.5037   -0.9380    3.0895 C   0  0  2  0  0  0  0  0  0  0  0  0
   -1.7403   -0.0567    1.8650 C   0  0  2  0  0  0  0  0  0  0  0  0
   -0.7843   -0.6394    0.7856 C   0  0  1  0  0  0  0  0  0  0  0  0
   -0.5896    0.3942   -0.3408 C   0  0  1  0  0  0  0  0  0  0  0  0
   -1.7805    1.3464   -0.4365 C   0  0  1  0  0  0  0  0  0  0  0  0
   -1.8420    2.2124    0.8244 C   0  0  2  0  0  0  0  0  0  0  0  0
   -1.4405    1.4072    2.0310 C   0  0  0  0  0  0  0  0  0  0  0  0
   -0.8093    1.9270    3.0908 C   0  0  0  0  0  0  0  0  0  0  0  0
   -0.5022    3.3189    3.2984 C   0  0  0  0  0  0  0  0  0  0  0  0
    0.2918    3.7946    4.2718 C   0  0  0  0  0  0  0  0  0  0  0  0
    0.5035    5.2664    4.4824 C   0  0  1  0  0  0  0  0  0  0  0  0
    0.1923    5.6862    5.9337 C   0  0  2  0  0  0  0  0  0  0  0  0
    0.9956    4.8210    6.9125 C   0  0  2  0  0  0  0  0  0  0  0  0
    0.7479    3.3275    6.6848 C   0  0  2  0  0  0  0  0  0  0  0  0
    0.9989    2.9494    5.2414 C   0  0  0  0  0  0  0  0  0  0  0  0
    1.7764    1.9243    4.9133 C   0  0  0  0  0  0  0  0  0  0  0  0
   -0.6044    3.0451    7.0370 O   0  0  0  0  0  0  0  0  0  0  0  0
   -1.1838    5.6508    6.2038 O   0  0  0  0  0  0  0  0  0  0  0  0
   -1.3844   -1.9234    0.2109 C   0  0  1  0  0  0  0  0  0  0  0  0
    3.4457   -2.7075    1.6946 H   0  0  0  0  0  0  0  0  0  0  0  0
    3.1921   -1.0313    2.1834 H   0  0  0  0  0  0  0  0  0  0  0  0
    2.3639   -2.3399    3.0257 H   0  0  0  0  0  0  0  0  0  0  0  0
    1.0912   -2.8679    0.9487 H   0  0  0  0  0  0  0  0  0  0  0  0
    1.2427   -1.3210   -0.9911 H   0  0  0  0  0  0  0  0  0  0  0  0
    2.5468   -0.4493   -0.1857 H   0  0  0  0  0  0  0  0  0  0  0  0
    2.7055   -3.4278   -0.7374 H   0  0  0  0  0  0  0  0  0  0  0  0
    4.0452   -2.3257   -0.4487 H   0  0  0  0  0  0  0  0  0  0  0  0
    3.8435   -3.1096   -2.7915 H   0  0  0  0  0  0  0  0  0  0  0  0
    2.2520   -2.3796   -2.9184 H   0  0  0  0  0  0  0  0  0  0  0  0
    4.7970   -0.2254   -1.1811 H   0  0  0  0  0  0  0  0  0  0  0  0
    5.7984   -1.4029   -2.0481 H   0  0  0  0  0  0  0  0  0  0  0  0
    5.6288    0.2424   -2.6629 H   0  0  0  0  0  0  0  0  0  0  0  0
    2.5250    0.4730   -2.1848 H   0  0  0  0  0  0  0  0  0  0  0  0
    3.4144    1.0113   -3.6085 H   0  0  0  0  0  0  0  0  0  0  0  0
    2.0844   -0.1361   -3.7838 H   0  0  0  0  0  0  0  0  0  0  0  0
    4.7329   -0.6405   -4.7318 H   0  0  0  0  0  0  0  0  0  0  0  0
    0.9770    0.0587    1.7771 H   0  0  0  0  0  0  0  0  0  0  0  0
    0.5546   -0.9847    3.8049 H   0  0  0  0  0  0  0  0  0  0  0  0
    0.0167   -2.4835    3.0556 H   0  0  0  0  0  0  0  0  0  0  0  0
   -1.7184   -0.4103    4.0176 H   0  0  0  0  0  0  0  0  0  0  0  0
   -2.1759   -1.7957    3.0503 H   0  0  0  0  0  0  0  0  0  0  0  0
   -2.7797   -0.1442    1.5355 H   0  0  0  0  0  0  0  0  0  0  0  0
    0.3066    0.9891   -0.1533 H   0  0  0  0  0  0  0  0  0  0  0  0
   -0.4630   -0.1098   -1.2999 H   0  0  0  0  0  0  0  0  0  0  0  0
   -1.6757    1.9845   -1.3161 H   0  0  0  0  0  0  0  0  0  0  0  0
   -2.6999    0.7721   -0.5606 H   0  0  0  0  0  0  0  0  0  0  0  0
   -2.8537    2.6076    0.9609 H   0  0  0  0  0  0  0  0  0  0  0  0
   -1.1689    3.0621    0.7057 H   0  0  0  0  0  0  0  0  0  0  0  0
   -0.4913    1.2709    3.8874 H   0  0  0  0  0  0  0  0  0  0  0  0
   -0.9831    4.0346    2.6461 H   0  0  0  0  0  0  0  0  0  0  0  0
    1.5488    5.5153    4.2743 H   0  0  0  0  0  0  0  0  0  0  0  0
   -0.1313    5.8401    3.8061 H   0  0  0  0  0  0  0  0  0  0  0  0
    0.4856    6.7370    6.0587 H   0  0  0  0  0  0  0  0  0  0  0  0
    0.7012    5.0711    7.9332 H   0  0  0  0  0  0  0  0  0  0  0  0
    2.0610    5.0212    6.7922 H   0  0  0  0  0  0  0  0  0  0  0  0
    1.4170    2.7465    7.3409 H   0  0  0  0  0  0  0  0  0  0  0  0
    1.9595    1.6638    3.8853 H   0  0  0  0  0  0  0  0  0  0  0  0
    2.2784    1.3302    5.6601 H   0  0  0  0  0  0  0  0  0  0  0  0
   -0.8059    2.1369    6.7891 H   0  0  0  0  0  0  0  0  0  0  0  0
   -1.4133    4.7303    6.4024 H   0  0  0  0  0  0  0  0  0  0  0  0
   -2.3388   -1.7073   -0.2659 H   0  0  0  0  0  0  0  0  0  0  0  0
   -0.7278   -2.3604   -0.5372 H   0  0  0  0  0  0  0  0  0  0  0  0
   -1.5516   -2.6622    0.9890 H   0  0  0  0  0  0  0  0  0  0  0  0
  1  2  1  0
  2  3  1  0
  3  4  1  0
  4  5  1  0
  5  6  1  0
  6  7  1  0
  6  8  1  0
  6  9  1  6
  2 10  1  0
 10 11  1  0
 11 12  1  0
 12 13  1  0
 14 13  1  1
 14 15  1  0
 15 16  1  0
 16 17  1  0
 17 18  1  0
 18 19  2  0
 19 20  1  0
 20 21  2  0
 21 22  1  0
 22 23  1  0
 23 24  1  0
 24 25  1  0
 25 26  1  0
 26 27  2  0
 25 28  1  0
 23 29  1  0
 14 30  1  0
 14 10  1  0
 18 13  1  0
 26 21  1  0
  1 31  1  6
  1 32  1  0
  1 33  1  0
  2 34  1  6
  3 35  1  6
  3 36  1  0
  4 37  1  6
  4 38  1  0
  5 39  1  6
  5 40  1  0
  7 41  1  1
  7 42  1  0
  7 43  1  0
  8 44  1  1
  8 45  1  0
  8 46  1  0
  9 47  1  0
 10 48  1  1
 11 49  1  1
 11 50  1  0
 12 51  1  1
 12 52  1  0
 13 53  1  6
 15 54  1  1
 15 55  1  0
 16 56  1  6
 16 57  1  0
 17 58  1  1
 17 59  1  0
 19 60  1  0
 20 61  1  0
 22 62  1  6
 22 63  1  0
 23 64  1  6
 24 65  1  1
 24 66  1  0
 25 67  1  1
 27 68  1  0
 27 69  1  0
 28 70  1  0
 29 71  1  0
 30 72  1  6
 30 73  1  0
 30 74  1  0
M  END
$$$$
