 energy: -92.463664271075 gnorm: 0.000038939130 xtb: 6.5.1 (9af7eec)
     RDKit          3D

 74 76  0  0  0  0  0  0  0  0999 V2000
    2.9145    0.9720    0.4062 C   0  0  1  0  0  0  0  0  0  0  0  0
    3.1174   -0.5426    0.4797 C   0  0  2  0  0  0  0  0  0  0  0  0
    3.9394   -1.0581   -0.7065 C   0  0  1  0  0  0  0  0  0  0  0  0
    5.4435   -0.8414   -0.5514 C   0  0  2  0  0  0  0  0  0  0  0  0
    6.2060   -1.0768   -1.8580 C   0  0  1  0  0  0  0  0  0  0  0  0
    6.0459   -2.4574   -2.5241 C   0  0  2  0  0  0  0  0  0  0  0  0
    6.3099   -3.6078   -1.5438 C   0  0  1  0  0  0  0  0  0  0  0  0
    7.0376   -2.5560   -3.6918 C   0  0  1  0  0  0  0  0  0  0  0  0
    4.7220   -2.5426   -3.0292 O   0  0  0  0  0  0  0  0  0  0  0  0
    1.8016   -1.3193    0.7413 C   0  0  2  0  0  0  0  0  0  0  0  0
    2.1266   -2.7521    1.2248 C   0  0  2  0  0  0  0  0  0  0  0  0
    1.6953   -3.7315    0.1239 C   0  0  2  0  0  0  0  0  0  0  0  0
    1.1848   -2.8655   -1.0412 C   0  0  2  0  0  0  0  0  0  0  0  0
    0.7543   -1.5390   -0.3872 C   0  0  1  0  0  0  0  0  0  0  0  0
   -0.6211   -1.7074    0.2849 C   0  0  1  0  0  0  0  0  0  0  0  0
   -1.6764   -2.2770   -0.6570 C   0  0  1  0  0  0  0  0  0  0  0  0
   -1.2333   -3.6358   -1.1966 C   0  0  2  0  0  0  0  0  0  0  0  0
    0.1219   -3.5588   -1.8369 C   0  0  0  0  0  0  0  0  0  0  0  0
    0.3618   -4.1613   -3.0118 C   0  0  0  0  0  0  0  0  0  0  0  0
    1.6263   -4.1838   -3.7055 C   0  0  0  0  0  0  0  0  0  0  0  0
    2.0181   -5.0548   -4.6487 C   0  0  0  0  0  0  0  0  0  0  0  0
    1.2098   -6.2200   -5.1478 C   0  0  1  0  0  0  0  0  0  0  0  0
    2.0352   -7.5124   -5.1295 C   0  0  2  0  0  0  0  0  0  0  0  0
    3.3318   -7.3174   -5.9088 C   0  0  2  0  0  0  0  0  0  0  0  0
    4.1623   -6.1976   -5.2770 C   0  0  2  0  0  0  0  0  0  0  0  0
    3.3519   -4.9214   -5.2580 C   0  0  0  0  0  0  0  0  0  0  0  0
    3.8189   -3.7767   -5.7426 C   0  0  0  0  0  0  0  0  0  0  0  0
    5.3830   -5.9886   -5.9516 O   0  0  0  0  0  0  0  0  0  0  0  0
    1.3396   -8.5894   -5.7219 O   0  0  0  0  0  0  0  0  0  0  0  0
    0.6603   -0.4373   -1.4383 C   0  0  1  0  0  0  0  0  0  0  0  0
    2.4450    1.2763   -0.5224 H   0  0  0  0  0  0  0  0  0  0  0  0
    2.2969    1.3150    1.2341 H   0  0  0  0  0  0  0  0  0  0  0  0
    3.8756    1.4771    0.4755 H   0  0  0  0  0  0  0  0  0  0  0  0
    3.7133   -0.7198    1.3862 H   0  0  0  0  0  0  0  0  0  0  0  0
    3.7744   -2.1240   -0.8276 H   0  0  0  0  0  0  0  0  0  0  0  0
    3.6228   -0.5708   -1.6277 H   0  0  0  0  0  0  0  0  0  0  0  0
    5.8334   -1.4949    0.2321 H   0  0  0  0  0  0  0  0  0  0  0  0
    5.6407    0.1881   -0.2427 H   0  0  0  0  0  0  0  0  0  0  0  0
    5.8747   -0.3352   -2.5881 H   0  0  0  0  0  0  0  0  0  0  0  0
    7.2701   -0.9152   -1.6730 H   0  0  0  0  0  0  0  0  0  0  0  0
    7.2810   -3.4875   -1.0714 H   0  0  0  0  0  0  0  0  0  0  0  0
    5.5430   -3.6367   -0.7753 H   0  0  0  0  0  0  0  0  0  0  0  0
    6.2951   -4.5576   -2.0762 H   0  0  0  0  0  0  0  0  0  0  0  0
    6.9024   -3.4989   -4.2208 H   0  0  0  0  0  0  0  0  0  0  0  0
    6.8703   -1.7409   -4.3925 H   0  0  0  0  0  0  0  0  0  0  0  0
    8.0622   -2.5047   -3.3331 H   0  0  0  0  0  0  0  0  0  0  0  0
    4.6850   -3.2552   -3.6827 H   0  0  0  0  0  0  0  0  0  0  0  0
    1.3070   -0.7708    1.5508 H   0  0  0  0  0  0  0  0  0  0  0  0
    1.5977   -2.9689    2.1538 H   0  0  0  0  0  0  0  0  0  0  0  0
    3.1905   -2.8522    1.4362 H   0  0  0  0  0  0  0  0  0  0  0  0
    0.9054   -4.3903    0.4845 H   0  0  0  0  0  0  0  0  0  0  0  0
    2.5189   -4.3658   -0.2042 H   0  0  0  0  0  0  0  0  0  0  0  0
    2.0232   -2.6421   -1.6980 H   0  0  0  0  0  0  0  0  0  0  0  0
   -0.5266   -2.3781    1.1402 H   0  0  0  0  0  0  0  0  0  0  0  0
   -0.9551   -0.7371    0.6610 H   0  0  0  0  0  0  0  0  0  0  0  0
   -2.6207   -2.3898   -0.1185 H   0  0  0  0  0  0  0  0  0  0  0  0
   -1.8552   -1.5946   -1.4888 H   0  0  0  0  0  0  0  0  0  0  0  0
   -1.9676   -4.0162   -1.9102 H   0  0  0  0  0  0  0  0  0  0  0  0
   -1.1918   -4.3429   -0.3611 H   0  0  0  0  0  0  0  0  0  0  0  0
   -0.4591   -4.6872   -3.4843 H   0  0  0  0  0  0  0  0  0  0  0  0
    2.3436   -3.4275   -3.4207 H   0  0  0  0  0  0  0  0  0  0  0  0
    0.3099   -6.3560   -4.5463 H   0  0  0  0  0  0  0  0  0  0  0  0
    0.9065   -6.0297   -6.1831 H   0  0  0  0  0  0  0  0  0  0  0  0
    2.2812   -7.7621   -4.0817 H   0  0  0  0  0  0  0  0  0  0  0  0
    3.0949   -7.0597   -6.9428 H   0  0  0  0  0  0  0  0  0  0  0  0
    3.8917   -8.2560   -5.9106 H   0  0  0  0  0  0  0  0  0  0  0  0
    4.3718   -6.4761   -4.2247 H   0  0  0  0  0  0  0  0  0  0  0  0
    4.7980   -3.7211   -6.1848 H   0  0  0  0  0  0  0  0  0  0  0  0
    3.2215   -2.8818   -5.7379 H   0  0  0  0  0  0  0  0  0  0  0  0
    5.7902   -6.8457   -6.1157 H   0  0  0  0  0  0  0  0  0  0  0  0
    0.4792   -8.6757   -5.2975 H   0  0  0  0  0  0  0  0  0  0  0  0
    0.3236    0.4959   -0.9926 H   0  0  0  0  0  0  0  0  0  0  0  0
    1.6140   -0.2780   -1.9279 H   0  0  0  0  0  0  0  0  0  0  0  0
   -0.0512   -0.7261   -2.2087 H   0  0  0  0  0  0  0  0  0  0  0  0
  1  2  1  0
  2  3  1  0
  3  4  1  0
  4  5  1  0
  5  6  1  0
  6  7  1  0
  6  8  1  0
  6  9  1  6
  2 10  1  0
 10 11  1  0
 11 12  1  0
 12 13  1  0
 14 13  1  6
 14 15  1  0
 15 16  1  0
 16 17  1  0
 17 18  1  0
 18 19  2  0
 19 20  1  0
 20 21  2  0
 21 22  1  0
 22 23  1  0
 23 24  1  0
 24 25  1  0
 25 26  1  0
 26 27  2  0
 25 28  1  0
 23 29  1  0
 14 30  1  0
 14 10  1  0
 18 13  1  0
 26 21  1  0
  1 31  1  6
  1 32  1  0
  1 33  1  0
  2 34  1  1
  3 35  1  6
  3 36  1  0
  4 37  1  1
  4 38  1  0
  5 39  1  6
  5 40  1  0
  7 41  1  1
  7 42  1  0
  7 43  1  0
  8 44  1  6
  8 45  1  0
  8 46  1  0
  9 47  1  0
 10 48  1  1
 11 49  1  1
 11 50  1  0
 12 51  1  1
 12 52  1  0
 13 53  1  6
 15 54  1  1
 15 55  1  0
 16 56  1  1
 16 57  1  0
 17 58  1  6
 17 59  1  0
 19 60  1  0
 20 61  1  0
 22 62  1  1
 22 63  1  0
 23 64  1  1
 24 65  1  6
 24 66  1  0
 25 67  1  1
 27 68  1  0
 27 69  1  0
 28 70  1  0
 29 71  1  0
 30 72  1  1
 30 73  1  0
 30 74  1  0
M  END
$$$$
