 energy: -92.461077851656 gnorm: 0.000025103943 xtb: 6.5.1 (9af7eec)
     RDKit          3D

 74 76  0  0  0  0  0  0  0  0999 V2000
   -3.1087   -0.8739   -0.5011 C   0  0  1  0  0  0  0  0  0  0  0  0
   -3.0121    0.1552   -1.6288 C   0  0  2  0  0  0  0  0  0  0  0  0
   -4.3358    0.2775   -2.4157 C   0  0  1  0  0  0  0  0  0  0  0  0
   -5.1208   -1.0027   -2.7103 C   0  0  2  0  0  0  0  0  0  0  0  0
   -6.2930   -0.7100   -3.6456 C   0  0  1  0  0  0  0  0  0  0  0  0
   -7.2140   -1.9116   -3.9589 C   0  0  2  0  0  0  0  0  0  0  0  0
   -8.0064   -2.3357   -2.7177 C   0  0  1  0  0  0  0  0  0  0  0  0
   -6.4113   -3.0983   -4.4991 C   0  0  1  0  0  0  0  0  0  0  0  0
   -8.1687   -1.4833   -4.9179 O   0  0  0  0  0  0  0  0  0  0  0  0
   -1.6796    0.0822   -2.4268 C   0  0  2  0  0  0  0  0  0  0  0  0
   -1.5465    1.3107   -3.3507 C   0  0  2  0  0  0  0  0  0  0  0  0
   -1.9333    0.8461   -4.7621 C   0  0  2  0  0  0  0  0  0  0  0  0
   -2.0616   -0.6902   -4.6753 C   0  0  2  0  0  0  0  0  0  0  0  0
   -1.3138   -1.0805   -3.3890 C   0  0  1  0  0  0  0  0  0  0  0  0
    0.2270   -1.0856   -3.5907 C   0  0  1  0  0  0  0  0  0  0  0  0
    0.6792   -1.0213   -5.0499 C   0  0  1  0  0  0  0  0  0  0  0  0
   -0.2042   -1.8838   -5.9434 C   0  0  2  0  0  0  0  0  0  0  0  0
   -1.6166   -1.3799   -5.9286 C   0  0  0  0  0  0  0  0  0  0  0  0
   -2.4148   -1.5201   -7.0000 C   0  0  0  0  0  0  0  0  0  0  0  0
   -3.7722   -1.0556   -7.0831 C   0  0  0  0  0  0  0  0  0  0  0  0
   -4.6198   -1.1435   -8.1238 C   0  0  0  0  0  0  0  0  0  0  0  0
   -4.3106   -1.7970   -9.4419 C   0  0  1  0  0  0  0  0  0  0  0  0
   -5.4006   -2.8098   -9.8107 C   0  0  2  0  0  0  0  0  0  0  0  0
   -6.7671   -2.1242   -9.8533 C   0  0  2  0  0  0  0  0  0  0  0  0
   -7.1085   -1.4723   -8.5100 C   0  0  2  0  0  0  0  0  0  0  0  0
   -5.9763   -0.5923   -8.0116 C   0  0  0  0  0  0  0  0  0  0  0  0
   -6.2310    0.5825   -7.4450 C   0  0  0  0  0  0  0  0  0  0  0  0
   -7.4214   -2.4499   -7.5365 O   0  0  0  0  0  0  0  0  0  0  0  0
   -5.4590   -3.8711   -8.8690 O   0  0  0  0  0  0  0  0  0  0  0  0
   -1.7133   -2.4775   -2.9175 C   0  0  1  0  0  0  0  0  0  0  0  0
   -3.3017   -1.8763   -0.8629 H   0  0  0  0  0  0  0  0  0  0  0  0
   -2.1843   -0.8889    0.0729 H   0  0  0  0  0  0  0  0  0  0  0  0
   -3.9184   -0.5964    0.1713 H   0  0  0  0  0  0  0  0  0  0  0  0
   -2.9063    1.1240   -1.1187 H   0  0  0  0  0  0  0  0  0  0  0  0
   -4.9982    0.9223   -1.8308 H   0  0  0  0  0  0  0  0  0  0  0  0
   -4.1464    0.8001   -3.3518 H   0  0  0  0  0  0  0  0  0  0  0  0
   -5.4953   -1.4186   -1.7750 H   0  0  0  0  0  0  0  0  0  0  0  0
   -4.4815   -1.7490   -3.1772 H   0  0  0  0  0  0  0  0  0  0  0  0
   -6.9155    0.0791   -3.2186 H   0  0  0  0  0  0  0  0  0  0  0  0
   -5.9137   -0.3359   -4.6014 H   0  0  0  0  0  0  0  0  0  0  0  0
   -7.3466   -2.6697   -1.9224 H   0  0  0  0  0  0  0  0  0  0  0  0
   -8.6026   -1.4993   -2.3641 H   0  0  0  0  0  0  0  0  0  0  0  0
   -8.6802   -3.1466   -2.9822 H   0  0  0  0  0  0  0  0  0  0  0  0
   -7.0956   -3.8411   -4.9035 H   0  0  0  0  0  0  0  0  0  0  0  0
   -5.7409   -2.7732   -5.2930 H   0  0  0  0  0  0  0  0  0  0  0  0
   -5.8263   -3.5642   -3.7105 H   0  0  0  0  0  0  0  0  0  0  0  0
   -7.8851   -1.7568   -5.8048 H   0  0  0  0  0  0  0  0  0  0  0  0
   -0.9107    0.1240   -1.6468 H   0  0  0  0  0  0  0  0  0  0  0  0
   -0.5164    1.6679   -3.3478 H   0  0  0  0  0  0  0  0  0  0  0  0
   -2.1731    2.1348   -3.0119 H   0  0  0  0  0  0  0  0  0  0  0  0
   -1.1785    1.1352   -5.4927 H   0  0  0  0  0  0  0  0  0  0  0  0
   -2.8719    1.2911   -5.0935 H   0  0  0  0  0  0  0  0  0  0  0  0
   -3.1098   -0.9323   -4.5070 H   0  0  0  0  0  0  0  0  0  0  0  0
    0.6887   -0.2568   -3.0532 H   0  0  0  0  0  0  0  0  0  0  0  0
    0.6257   -2.0021   -3.1504 H   0  0  0  0  0  0  0  0  0  0  0  0
    0.6542    0.0071   -5.4120 H   0  0  0  0  0  0  0  0  0  0  0  0
    1.7152   -1.3616   -5.1162 H   0  0  0  0  0  0  0  0  0  0  0  0
   -0.1794   -2.9167   -5.5790 H   0  0  0  0  0  0  0  0  0  0  0  0
    0.1820   -1.8939   -6.9656 H   0  0  0  0  0  0  0  0  0  0  0  0
   -2.0025   -2.0130   -7.8719 H   0  0  0  0  0  0  0  0  0  0  0  0
   -4.1600   -0.5756   -6.1969 H   0  0  0  0  0  0  0  0  0  0  0  0
   -4.2735   -1.0332  -10.2241 H   0  0  0  0  0  0  0  0  0  0  0  0
   -3.3405   -2.2964   -9.4165 H   0  0  0  0  0  0  0  0  0  0  0  0
   -5.1792   -3.2285  -10.8075 H   0  0  0  0  0  0  0  0  0  0  0  0
   -7.5348   -2.8643  -10.0861 H   0  0  0  0  0  0  0  0  0  0  0  0
   -6.7581   -1.3675  -10.6384 H   0  0  0  0  0  0  0  0  0  0  0  0
   -8.0170   -0.8674   -8.6127 H   0  0  0  0  0  0  0  0  0  0  0  0
   -7.2363    0.9520   -7.3399 H   0  0  0  0  0  0  0  0  0  0  0  0
   -5.4418    1.2172   -7.0783 H   0  0  0  0  0  0  0  0  0  0  0  0
   -6.7766   -3.1677   -7.6416 H   0  0  0  0  0  0  0  0  0  0  0  0
   -4.5683   -4.2037   -8.7169 H   0  0  0  0  0  0  0  0  0  0  0  0
   -2.7888   -2.5896   -2.8412 H   0  0  0  0  0  0  0  0  0  0  0  0
   -1.3577   -3.2226   -3.6265 H   0  0  0  0  0  0  0  0  0  0  0  0
   -1.2710   -2.6910   -1.9471 H   0  0  0  0  0  0  0  0  0  0  0  0
  1  2  1  0
  2  3  1  0
  3  4  1  0
  4  5  1  0
  5  6  1  0
  6  7  1  0
  6  8  1  0
  6  9  1  6
  2 10  1  0
 10 11  1  0
 11 12  1  0
 12 13  1  0
 14 13  1  6
 14 15  1  0
 15 16  1  0
 16 17  1  0
 17 18  1  0
 18 19  2  0
 19 20  1  0
 20 21  2  0
 21 22  1  0
 22 23  1  0
 23 24  1  0
 24 25  1  0
 25 26  1  0
 26 27  2  0
 25 28  1  0
 23 29  1  0
 14 30  1  0
 14 10  1  0
 18 13  1  0
 26 21  1  0
  1 31  1  6
  1 32  1  0
  1 33  1  0
  2 34  1  1
  3 35  1  1
  3 36  1  0
  4 37  1  1
  4 38  1  0
  5 39  1  1
  5 40  1  0
  7 41  1  1
  7 42  1  0
  7 43  1  0
  8 44  1  6
  8 45  1  0
  8 46  1  0
  9 47  1  0
 10 48  1  1
 11 49  1  6
 11 50  1  0
 12 51  1  6
 12 52  1  0
 13 53  1  1
 15 54  1  1
 15 55  1  0
 16 56  1  6
 16 57  1  0
 17 58  1  1
 17 59  1  0
 19 60  1  0
 20 61  1  0
 22 62  1  6
 22 63  1  0
 23 64  1  6
 24 65  1  6
 24 66  1  0
 25 67  1  6
 27 68  1  0
 27 69  1  0
 28 70  1  0
 29 71  1  0
 30 72  1  1
 30 73  1  0
 30 74  1  0
M  END
$$$$
