 energy: -36.218295437947 gnorm: 0.000037810499 xtb: 6.5.1 (9af7eec)
     RDKit          3D

 23 22  0  0  0  0  0  0  0  0999 V2000
    1.9803   -0.5148   -1.5965 N   0  0  0  0  0  0  0  0  0  0  0  0
    1.0889   -1.3145   -0.7716 C   0  0  2  0  0  0  0  0  0  0  0  0
    1.4128   -1.1088    0.7274 C   0  0  0  0  0  0  0  0  0  0  0  0
    1.8978   -1.9879    1.4155 O   0  0  0  0  0  0  0  0  0  0  0  0
    1.2163   -2.7805   -1.1619 C   0  0  1  0  0  0  0  0  0  0  0  0
   -0.0374   -3.8105   -0.3318 S   0  0  0  0  0  0  0  0  0  0  0  0
    2.8021   -0.9723   -1.9583 H   0  0  0  0  0  0  0  0  0  0  0  0
    0.0659   -0.9598   -0.9506 H   0  0  0  0  0  0  0  0  0  0  0  0
    1.0501   -2.9090   -2.2311 H   0  0  0  0  0  0  0  0  0  0  0  0
    2.1982   -3.1653   -0.8853 H   0  0  0  0  0  0  0  0  0  0  0  0
    1.7728    0.7955   -1.8511 C   0  0  0  0  0  0  0  0  0  0  0  0
    0.8500    1.4137   -1.3527 O   0  0  0  0  0  0  0  0  0  0  0  0
    1.0963    0.1151    1.1604 N   0  0  0  0  0  0  0  0  0  0  0  0
    1.3336    0.5489    2.5153 C   0  0  1  0  0  0  0  0  0  0  0  0
    1.7467   -0.2917    3.0710 H   0  0  0  0  0  0  0  0  0  0  0  0
    2.0409    1.3799    2.5341 H   0  0  0  0  0  0  0  0  0  0  0  0
    0.3987    0.8669    2.9787 H   0  0  0  0  0  0  0  0  0  0  0  0
    0.7327    0.7895    0.4930 H   0  0  0  0  0  0  0  0  0  0  0  0
    2.7792    1.4086   -2.7945 C   0  0  2  0  0  0  0  0  0  0  0  0
    2.5217    2.4497   -2.9645 H   0  0  0  0  0  0  0  0  0  0  0  0
    2.7780    0.8774   -3.7436 H   0  0  0  0  0  0  0  0  0  0  0  0
    3.7764    1.3520   -2.3630 H   0  0  0  0  0  0  0  0  0  0  0  0
    0.4863   -3.6642    0.8799 H   0  0  0  0  0  0  0  0  0  0  0  0
  1  7  1  0
  1 11  1  0
  1  2  1  0
  2  3  1  0
  2  5  1  0
  2  8  1  1
  3 13  1  0
  3  4  1  0
  5  6  1  0
  5 10  1  6
  5  9  1  0
  6 23  1  0
 11 19  1  0
 11 12  1  0
 13 18  1  0
 13 14  1  0
 14 15  1  1
 14 17  1  0
 14 16  1  0
 19 21  1  6
 19 22  1  0
 19 20  1  0
M  END
$$$$
