 energy: -36.215192270451 gnorm: 0.000041016749 xtb: 6.5.1 (9af7eec)
     RDKit          3D

 23 22  0  0  0  0  0  0  0  0999 V2000
    1.6716   -0.4516   -1.7775 N   0  0  0  0  0  0  0  0  0  0  0  0
    0.5585   -1.3882   -1.7157 C   0  0  2  0  0  0  0  0  0  0  0  0
   -0.7930   -0.7581   -2.1340 C   0  0  0  0  0  0  0  0  0  0  0  0
   -1.4377   -1.2271   -3.0487 O   0  0  0  0  0  0  0  0  0  0  0  0
    0.4088   -2.0324   -0.3372 C   0  0  1  0  0  0  0  0  0  0  0  0
    1.9288   -2.9081    0.1825 S   0  0  0  0  0  0  0  0  0  0  0  0
    2.3391   -0.6130   -2.5143 H   0  0  0  0  0  0  0  0  0  0  0  0
    0.7678   -2.1752   -2.4464 H   0  0  0  0  0  0  0  0  0  0  0  0
    0.1708   -1.2994    0.4299 H   0  0  0  0  0  0  0  0  0  0  0  0
   -0.3725   -2.7899   -0.3774 H   0  0  0  0  0  0  0  0  0  0  0  0
    1.9293    0.5514   -0.9132 C   0  0  0  0  0  0  0  0  0  0  0  0
    1.1838    0.8587    0.0024 O   0  0  0  0  0  0  0  0  0  0  0  0
   -1.1656    0.2890   -1.3893 N   0  0  0  0  0  0  0  0  0  0  0  0
   -2.3959    1.0042   -1.6252 C   0  0  1  0  0  0  0  0  0  0  0  0
   -2.9249    0.5068   -2.4366 H   0  0  0  0  0  0  0  0  0  0  0  0
   -3.0150    0.9951   -0.7270 H   0  0  0  0  0  0  0  0  0  0  0  0
   -2.1908    2.0390   -1.9053 H   0  0  0  0  0  0  0  0  0  0  0  0
   -0.5386    0.6353   -0.6675 H   0  0  0  0  0  0  0  0  0  0  0  0
    3.2316    1.2674   -1.1857 C   0  0  2  0  0  0  0  0  0  0  0  0
    3.3830    2.0338   -0.4311 H   0  0  0  0  0  0  0  0  0  0  0  0
    3.1986    1.7351   -2.1675 H   0  0  0  0  0  0  0  0  0  0  0  0
    4.0637    0.5669   -1.1605 H   0  0  0  0  0  0  0  0  0  0  0  0
    2.5750   -1.8259    0.6111 H   0  0  0  0  0  0  0  0  0  0  0  0
  1  7  1  0
  1 11  1  0
  1  2  1  0
  2  3  1  0
  2  5  1  0
  2  8  1  6
  3 13  1  0
  3  4  1  0
  5  6  1  0
  5 10  1  6
  5  9  1  0
  6 23  1  0
 11 19  1  0
 11 12  1  0
 13 18  1  0
 13 14  1  0
 14 15  1  6
 14 17  1  0
 14 16  1  0
 19 21  1  6
 19 22  1  0
 19 20  1  0
M  END
$$$$
