-37.02537406
     RDKit          3D

 23 22  0  0  1  0  0  0  0  0999 V2000
    1.1015   -0.3219    0.3543 N   0  0  0  0  0  0  0  0  0  0  0  0
   -0.0222   -0.0778   -0.5088 C   0  0  2  0  0  0  0  0  0  0  0  0
   -0.9260    0.9507    0.2033 C   0  0  0  0  0  0  0  0  0  0  0  0
   -0.7541    1.2373    1.3680 O   0  0  0  0  0  0  0  0  0  0  0  0
   -0.8483   -1.3715   -0.7398 C   0  0  1  0  0  0  0  0  0  0  0  0
   -1.6982   -1.6681    0.3329 O   0  0  0  0  0  0  0  0  0  0  0  0
    0.9520   -0.0239    1.3153 H   0  0  0  0  0  0  0  0  0  0  0  0
    0.3073    0.3206   -1.4746 H   0  0  0  0  0  0  0  0  0  0  0  0
   -1.5002   -1.2563   -1.6097 H   0  0  0  0  0  0  0  0  0  0  0  0
   -0.1576   -2.2049   -0.9308 H   0  0  0  0  0  0  0  0  0  0  0  0
   -1.1749   -1.7287    1.1413 H   0  0  0  0  0  0  0  0  0  0  0  0
   -1.8876    1.4738   -0.5730 N   0  0  0  0  0  0  0  0  0  0  0  0
   -2.0074    1.1384   -1.5151 H   0  0  0  0  0  0  0  0  0  0  0  0
   -2.8890    2.3779   -0.0580 C   0  0  1  0  0  0  0  0  0  0  0  0
   -2.9164    3.2910   -0.6537 H   0  0  0  0  0  0  0  0  0  0  0  0
   -3.8748    1.9097   -0.0674 H   0  0  0  0  0  0  0  0  0  0  0  0
   -2.6164    2.6199    0.9673 H   0  0  0  0  0  0  0  0  0  0  0  0
    2.3643   -0.6944    0.0326 C   0  0  0  0  0  0  0  0  0  0  0  0
    3.2155   -0.8049    0.8873 O   0  0  0  0  0  0  0  0  0  0  0  0
    2.6301   -0.9651   -1.4338 C   0  0  2  0  0  0  0  0  0  0  0  0
    3.6436   -1.3418   -1.5351 H   0  0  0  0  0  0  0  0  0  0  0  0
    2.5410   -0.0402   -2.0009 H   0  0  0  0  0  0  0  0  0  0  0  0
    1.9313   -1.6934   -1.8360 H   0  0  0  0  0  0  0  0  0  0  0  0
  1  7  1  0
  2  8  1  6
  2  3  1  0
  2  1  1  0
  3  4  2  0
  5  2  1  0
  5  6  1  0
  6 11  1  0
  5  9  1  6
 10  5  1  0
 12 14  1  0
 12  3  1  0
 13 12  1  0
 14 17  1  1
 15 14  1  0
 16 14  1  0
 18  1  1  0
 18 19  2  0
 20 18  1  0
 20 21  1  1
 22 20  1  0
 23 20  1  0
M  END
$$$$
