-37.02701106
     RDKit          3D

 23 22  0  0  1  0  0  0  0  0999 V2000
    0.9096   -0.7304    0.2782 N   0  0  0  0  0  0  0  0  0  0  0  0
   -0.3237   -0.7129   -0.4787 C   0  0  2  0  0  0  0  0  0  0  0  0
   -0.8793    0.7281   -0.5124 C   0  0  0  0  0  0  0  0  0  0  0  0
   -0.7018    1.4459   -1.4753 O   0  0  0  0  0  0  0  0  0  0  0  0
   -1.3170   -1.7358    0.1065 C   0  0  1  0  0  0  0  0  0  0  0  0
   -1.5024   -1.6014    1.4995 O   0  0  0  0  0  0  0  0  0  0  0  0
    0.8059   -0.6839    1.2847 H   0  0  0  0  0  0  0  0  0  0  0  0
   -0.1102   -0.9973   -1.5121 H   0  0  0  0  0  0  0  0  0  0  0  0
   -2.2979   -1.5800   -0.3493 H   0  0  0  0  0  0  0  0  0  0  0  0
   -0.9767   -2.7482   -0.1372 H   0  0  0  0  0  0  0  0  0  0  0  0
   -0.7652   -2.0188    1.9583 H   0  0  0  0  0  0  0  0  0  0  0  0
   -1.4908    1.1076    0.6196 N   0  0  0  0  0  0  0  0  0  0  0  0
   -1.6715    0.4162    1.3355 H   0  0  0  0  0  0  0  0  0  0  0  0
   -2.0531    2.4246    0.7931 C   0  0  1  0  0  0  0  0  0  0  0  0
   -3.1384    2.3722    0.8965 H   0  0  0  0  0  0  0  0  0  0  0  0
   -1.6319    2.9021    1.6790 H   0  0  0  0  0  0  0  0  0  0  0  0
   -1.8023    3.0113   -0.0890 H   0  0  0  0  0  0  0  0  0  0  0  0
    2.1586   -0.3847   -0.1503 C   0  0  0  0  0  0  0  0  0  0  0  0
    3.0554   -0.2708    0.6569 O   0  0  0  0  0  0  0  0  0  0  0  0
    2.3321   -0.2069   -1.6352 C   0  0  2  0  0  0  0  0  0  0  0  0
    1.6609    0.5693   -1.9968 H   0  0  0  0  0  0  0  0  0  0  0  0
    2.1136   -1.1363   -2.1573 H   0  0  0  0  0  0  0  0  0  0  0  0
    3.3606    0.0797   -1.8335 H   0  0  0  0  0  0  0  0  0  0  0  0
  1  7  1  0
  2  8  1  6
  2  5  1  0
  2  1  1  0
  3  2  1  0
  3 12  1  0
  4  3  2  0
  5  6  1  0
  6 11  1  0
  5  9  1  6
 10  5  1  0
 12 14  1  0
 12 13  1  0
 14 15  1  1
 14 16  1  0
 17 14  1  0
 18  1  1  0
 18 19  2  0
 20 18  1  0
 20 21  1  6
 22 20  1  0
 23 20  1  0
M  END
$$$$
