 energy: -32.975849557945 gnorm: 0.000052650237 xtb: 6.5.1 (9af7eec)
     RDKit          3D

 22 21  0  0  0  0  0  0  0  0999 V2000
    0.9085   -0.0982    0.3744 N   0  0  0  0  0  0  0  0  0  0  0  0
    0.8658    0.4175    1.2392 H   0  0  0  0  0  0  0  0  0  0  0  0
   -0.1533   -1.0638    0.1364 C   0  0  1  0  0  0  0  0  0  0  0  0
    0.2754   -1.8661   -0.4757 H   0  0  0  0  0  0  0  0  0  0  0  0
   -0.6723   -1.6043    1.4583 C   0  0  1  0  0  0  0  0  0  0  0  0
   -1.2892   -0.3902   -0.6682 C   0  0  0  0  0  0  0  0  0  0  0  0
    0.1439   -1.9996    2.0583 H   0  0  0  0  0  0  0  0  0  0  0  0
   -1.1809   -0.8132    2.0046 H   0  0  0  0  0  0  0  0  0  0  0  0
   -1.3914   -2.3964    1.2711 H   0  0  0  0  0  0  0  0  0  0  0  0
   -2.3481   -0.0698   -0.1692 O   0  0  0  0  0  0  0  0  0  0  0  0
    1.8539    0.1947   -0.5402 C   0  0  0  0  0  0  0  0  0  0  0  0
    2.8753    1.2063   -0.0735 C   0  0  2  0  0  0  0  0  0  0  0  0
    3.3424    0.8744    0.8508 H   0  0  0  0  0  0  0  0  0  0  0  0
    2.3914    2.1649    0.1031 H   0  0  0  0  0  0  0  0  0  0  0  0
    3.6356    1.3270   -0.8394 H   0  0  0  0  0  0  0  0  0  0  0  0
    1.8753   -0.3222   -1.6438 O   0  0  0  0  0  0  0  0  0  0  0  0
   -0.9615   -0.2000   -1.9558 N   0  0  0  0  0  0  0  0  0  0  0  0
   -0.0147   -0.4135   -2.2527 H   0  0  0  0  0  0  0  0  0  0  0  0
   -1.8344    0.4708   -2.8878 C   0  0  1  0  0  0  0  0  0  0  0  0
   -2.0080   -0.1587   -3.7616 H   0  0  0  0  0  0  0  0  0  0  0  0
   -2.7801    0.6602   -2.3820 H   0  0  0  0  0  0  0  0  0  0  0  0
   -1.4011    1.4189   -3.2130 H   0  0  0  0  0  0  0  0  0  0  0  0
  1  2  1  0
  1 11  1  0
  1  3  1  0
  3  6  1  0
  3  5  1  0
  3  4  1  6
  5  9  1  6
  5  7  1  0
  5  8  1  0
  6 10  1  0
  6 17  1  0
 11 12  1  0
 11 16  1  0
 12 15  1  6
 12 14  1  0
 12 13  1  0
 17 18  1  0
 17 19  1  0
 19 20  1  6
 19 21  1  0
 19 22  1  0
M  END
$$$$
