 energy: -32.973138648106 gnorm: 0.000022650596 xtb: 6.5.1 (9af7eec)
     RDKit          3D

 22 21  0  0  0  0  0  0  0  0999 V2000
    1.0197   -1.4859    0.0057 N   0  0  0  0  0  0  0  0  0  0  0  0
    2.0010   -1.7135   -0.0856 H   0  0  0  0  0  0  0  0  0  0  0  0
    0.1407   -2.2739   -0.8231 C   0  0  1  0  0  0  0  0  0  0  0  0
   -0.7855   -2.4474   -0.2620 H   0  0  0  0  0  0  0  0  0  0  0  0
   -0.1822   -1.5402   -2.1317 C   0  0  1  0  0  0  0  0  0  0  0  0
    0.8522   -3.5929   -1.1333 C   0  0  0  0  0  0  0  0  0  0  0  0
   -0.6576   -0.5908   -1.8995 H   0  0  0  0  0  0  0  0  0  0  0  0
    0.7341   -1.3500   -2.6860 H   0  0  0  0  0  0  0  0  0  0  0  0
   -0.8539   -2.1282   -2.7518 H   0  0  0  0  0  0  0  0  0  0  0  0
    2.0528   -3.7198   -0.9990 O   0  0  0  0  0  0  0  0  0  0  0  0
    0.5673   -0.6868    0.9971 C   0  0  0  0  0  0  0  0  0  0  0  0
    1.6726   -0.0423    1.8060 C   0  0  2  0  0  0  0  0  0  0  0  0
    2.3184    0.5423    1.1550 H   0  0  0  0  0  0  0  0  0  0  0  0
    2.2702   -0.8093    2.2933 H   0  0  0  0  0  0  0  0  0  0  0  0
    1.2357    0.6068    2.5591 H   0  0  0  0  0  0  0  0  0  0  0  0
   -0.6153   -0.5015    1.1958 O   0  0  0  0  0  0  0  0  0  0  0  0
    0.0416   -4.5660   -1.5870 N   0  0  0  0  0  0  0  0  0  0  0  0
   -0.9494   -4.3957   -1.6497 H   0  0  0  0  0  0  0  0  0  0  0  0
    0.5252   -5.8688   -1.9760 C   0  0  1  0  0  0  0  0  0  0  0  0
    0.2993   -6.0664   -3.0253 H   0  0  0  0  0  0  0  0  0  0  0  0
    1.6042   -5.8720   -1.8316 H   0  0  0  0  0  0  0  0  0  0  0  0
    0.0751   -6.6481   -1.3589 H   0  0  0  0  0  0  0  0  0  0  0  0
  1  2  1  0
  1 11  1  0
  1  3  1  0
  3  6  1  0
  3  5  1  0
  3  4  1  1
  5  9  1  6
  5  7  1  0
  5  8  1  0
  6 10  1  0
  6 17  1  0
 11 12  1  0
 11 16  1  0
 12 15  1  1
 12 14  1  0
 12 13  1  0
 17 18  1  0
 17 19  1  0
 19 20  1  6
 19 21  1  0
 19 22  1  0
M  END
$$$$
