 energy: -55.593352212437 gnorm: 0.000045227087 xtb: 6.5.1 (9af7eec)
     RDKit          3D

 36 37  0  0  0  0  0  0  0  0999 V2000
    0.5257    1.4841    0.8001 N   0  0  0  0  0  0  0  0  0  0  0  0
    0.0677    1.3190   -0.5555 C   0  0  2  0  0  0  0  0  0  0  0  0
   -0.1805    2.7253   -1.1081 C   0  0  0  0  0  0  0  0  0  0  0  0
   -0.1520    3.7047   -0.3884 O   0  0  0  0  0  0  0  0  0  0  0  0
   -1.2381    0.4871   -0.6056 C   0  0  1  0  0  0  0  0  0  0  0  0
    0.4070    2.4223    1.1629 H   0  0  0  0  0  0  0  0  0  0  0  0
    0.8437    0.8010   -1.1337 H   0  0  0  0  0  0  0  0  0  0  0  0
   -1.4383    0.1769   -1.6317 H   0  0  0  0  0  0  0  0  0  0  0  0
   -1.0732   -0.4084   -0.0042 H   0  0  0  0  0  0  0  0  0  0  0  0
    1.1479    0.5136    1.4992 C   0  0  0  0  0  0  0  0  0  0  0  0
    1.3349   -0.5998    1.0530 O   0  0  0  0  0  0  0  0  0  0  0  0
   -0.4216    2.7742   -2.4279 N   0  0  0  0  0  0  0  0  0  0  0  0
   -0.4650    1.9160   -2.9530 H   0  0  0  0  0  0  0  0  0  0  0  0
   -0.7849    3.9939   -3.1076 C   0  0  1  0  0  0  0  0  0  0  0  0
   -0.1395    4.1533   -3.9722 H   0  0  0  0  0  0  0  0  0  0  0  0
   -1.8275    3.9612   -3.4308 H   0  0  0  0  0  0  0  0  0  0  0  0
   -0.6574    4.8114   -2.4009 H   0  0  0  0  0  0  0  0  0  0  0  0
    1.5819    0.9510    2.8839 C   0  0  2  0  0  0  0  0  0  0  0  0
    0.7302    1.3291    3.4443 H   0  0  0  0  0  0  0  0  0  0  0  0
    2.3236    1.7425    2.8031 H   0  0  0  0  0  0  0  0  0  0  0  0
    2.0157    0.1055    3.4093 H   0  0  0  0  0  0  0  0  0  0  0  0
   -2.3856    1.2839   -0.0815 C   0  0  1  0  0  0  0  0  0  0  0  0
   -2.6445    1.5873    1.2235 C   0  0  0  0  0  0  0  0  0  0  0  0
   -3.3678    1.9716   -0.8591 C   0  0  0  0  0  0  0  0  0  0  0  0
   -2.1309    1.2589    2.1066 H   0  0  0  0  0  0  0  0  0  0  0  0
   -4.1893    2.6775    0.0539 C   0  0  0  0  0  0  0  0  0  0  0  0
   -3.6461    2.0516   -2.2236 C   0  0  0  0  0  0  0  0  0  0  0  0
   -4.1083    2.7932    2.1615 H   0  0  0  0  0  0  0  0  0  0  0  0
   -4.6995    2.8331   -2.6406 C   0  0  0  0  0  0  0  0  0  0  0  0
   -3.0547    1.5009   -2.9414 H   0  0  0  0  0  0  0  0  0  0  0  0
   -3.7280    2.4175    1.3100 N   0  0  0  0  0  0  0  0  0  0  0  0
   -5.2520    3.4636   -0.3726 C   0  0  0  0  0  0  0  0  0  0  0  0
   -5.4909    3.5355   -1.7274 C   0  0  0  0  0  0  0  0  0  0  0  0
   -5.8683    3.9982    0.3354 H   0  0  0  0  0  0  0  0  0  0  0  0
   -6.3071    4.1396   -2.0947 H   0  0  0  0  0  0  0  0  0  0  0  0
   -4.9277    2.9073   -3.6942 H   0  0  0  0  0  0  0  0  0  0  0  0
  1 10  1  0
  1  2  1  0
  1  6  1  0
  2  7  1  6
  2  5  1  0
  2  3  1  0
  3  4  1  0
  3 12  1  0
  5 22  1  0
  5  9  1  1
  5  8  1  0
 10 11  1  0
 10 18  1  0
 12 13  1  0
 12 14  1  0
 14 17  1  1
 14 15  1  0
 14 16  1  0
 18 21  1  1
 18 19  1  0
 18 20  1  0
 22 23  1  1
 22 24  1  0
 23 25  1  0
 23 31  1  0
 24 26  1  0
 24 27  1  0
 26 31  1  0
 26 32  1  0
 27 29  1  0
 27 30  1  0
 28 31  1  0
 29 33  1  0
 29 36  1  0
 32 34  1  0
 32 33  1  0
 33 35  1  0
M  END
$$$$
