 energy: -42.541427576582 gnorm: 0.000024707585 xtb: 6.5.1 (9af7eec)
     RDKit          3D

 29 28  0  0  0  0  0  0  0  0999 V2000
   -1.7607   -0.9129    1.2139 N   0  0  0  0  0  0  0  0  0  0  0  0
   -1.5648   -1.9070    1.1882 H   0  0  0  0  0  0  0  0  0  0  0  0
   -0.8017   -0.1034    0.5000 C   0  0  1  0  0  0  0  0  0  0  0  0
   -1.3334    0.5176   -0.2345 H   0  0  0  0  0  0  0  0  0  0  0  0
   -0.0581    0.8399    1.4640 C   0  0  2  0  0  0  0  0  0  0  0  0
   -0.8213    1.4309    1.9754 H   0  0  0  0  0  0  0  0  0  0  0  0
    0.5792    1.5250    0.9021 H   0  0  0  0  0  0  0  0  0  0  0  0
    0.7780    0.1028    2.4998 C   0  0  2  0  0  0  0  0  0  0  0  0
    0.2518   -0.7714    2.8771 H   0  0  0  0  0  0  0  0  0  0  0  0
    1.0156    0.7679    3.3303 H   0  0  0  0  0  0  0  0  0  0  0  0
    2.3809   -0.4760    1.8175 S   0  0  0  0  0  0  0  0  0  0  0  0
    2.3162   -2.2431    2.2203 C   0  0  2  0  0  0  0  0  0  0  0  0
    1.5160   -2.7129    1.6544 H   0  0  0  0  0  0  0  0  0  0  0  0
    2.1723   -2.3647    3.2901 H   0  0  0  0  0  0  0  0  0  0  0  0
    3.2739   -2.6599    1.9261 H   0  0  0  0  0  0  0  0  0  0  0  0
    0.1384   -1.0669   -0.2292 C   0  0  0  0  0  0  0  0  0  0  0  0
    0.0941   -2.2669   -0.0204 O   0  0  0  0  0  0  0  0  0  0  0  0
    0.9439   -0.4920   -1.1350 N   0  0  0  0  0  0  0  0  0  0  0  0
    0.9828    0.5136   -1.1829 H   0  0  0  0  0  0  0  0  0  0  0  0
   -2.9329   -0.4274    1.6767 C   0  0  0  0  0  0  0  0  0  0  0  0
   -3.2221    0.7493    1.6105 O   0  0  0  0  0  0  0  0  0  0  0  0
   -3.8243   -1.4840    2.2945 C   0  0  2  0  0  0  0  0  0  0  0  0
   -3.2977   -1.9992    3.0944 H   0  0  0  0  0  0  0  0  0  0  0  0
   -4.1103   -2.2129    1.5394 H   0  0  0  0  0  0  0  0  0  0  0  0
   -4.7169   -1.0122    2.6939 H   0  0  0  0  0  0  0  0  0  0  0  0
    1.9964   -1.2213   -1.8003 C   0  0  1  0  0  0  0  0  0  0  0  0
    2.9652   -1.0008   -1.3456 H   0  0  0  0  0  0  0  0  0  0  0  0
    1.7844   -2.2830   -1.6900 H   0  0  0  0  0  0  0  0  0  0  0  0
    2.0210   -0.9597   -2.8575 H   0  0  0  0  0  0  0  0  0  0  0  0
  1  3  1  0
  1 20  1  0
  1  2  1  0
  3  4  1  6
  3  5  1  0
  3 16  1  0
  5  8  1  0
  5  7  1  6
  5  6  1  0
  8  9  1  1
  8 10  1  0
  8 11  1  0
 11 12  1  0
 12 14  1  1
 12 13  1  0
 12 15  1  0
 16 18  1  0
 16 17  1  0
 18 19  1  0
 18 26  1  0
 20 21  1  0
 20 22  1  0
 22 24  1  6
 22 23  1  0
 22 25  1  0
 26 27  1  1
 26 28  1  0
 26 29  1  0
M  END
$$$$
