 energy: -42.542541307811 gnorm: 0.000030632245 xtb: 6.5.1 (9af7eec)
     RDKit          3D

 29 28  0  0  0  0  0  0  0  0999 V2000
   -2.6748   -1.0536    0.7539 N   0  0  0  0  0  0  0  0  0  0  0  0
   -2.7060   -1.5353   -0.1302 H   0  0  0  0  0  0  0  0  0  0  0  0
   -2.1212    0.2946    0.7226 C   0  0  1  0  0  0  0  0  0  0  0  0
   -1.9243    0.5254   -0.3295 H   0  0  0  0  0  0  0  0  0  0  0  0
   -3.1218    1.3288    1.2584 C   0  0  2  0  0  0  0  0  0  0  0  0
   -3.2798    1.1785    2.3275 H   0  0  0  0  0  0  0  0  0  0  0  0
   -4.0771    1.1777    0.7496 H   0  0  0  0  0  0  0  0  0  0  0  0
   -2.6482    2.7546    1.0138 C   0  0  2  0  0  0  0  0  0  0  0  0
   -1.6682    2.9306    1.4520 H   0  0  0  0  0  0  0  0  0  0  0  0
   -3.3643    3.4609    1.4332 H   0  0  0  0  0  0  0  0  0  0  0  0
   -2.5133    3.1373   -0.7743 S   0  0  0  0  0  0  0  0  0  0  0  0
   -0.7153    3.3341   -0.9429 C   0  0  2  0  0  0  0  0  0  0  0  0
   -0.2080    2.4681   -0.5264 H   0  0  0  0  0  0  0  0  0  0  0  0
   -0.4071    4.2450   -0.4368 H   0  0  0  0  0  0  0  0  0  0  0  0
   -0.5126    3.4155   -2.0057 H   0  0  0  0  0  0  0  0  0  0  0  0
   -0.7670    0.4047    1.4529 C   0  0  0  0  0  0  0  0  0  0  0  0
    0.2277    0.7961    0.8676 O   0  0  0  0  0  0  0  0  0  0  0  0
   -0.8043    0.0816    2.7483 N   0  0  0  0  0  0  0  0  0  0  0  0
   -1.6714   -0.2849    3.1370 H   0  0  0  0  0  0  0  0  0  0  0  0
   -3.2302   -1.6741    1.8140 C   0  0  0  0  0  0  0  0  0  0  0  0
   -3.2376   -1.2109    2.9423 O   0  0  0  0  0  0  0  0  0  0  0  0
   -3.8365   -3.0182    1.4802 C   0  0  2  0  0  0  0  0  0  0  0  0
   -3.0783   -3.6796    1.0662 H   0  0  0  0  0  0  0  0  0  0  0  0
   -4.6342   -2.8992    0.7502 H   0  0  0  0  0  0  0  0  0  0  0  0
   -4.2430   -3.4608    2.3848 H   0  0  0  0  0  0  0  0  0  0  0  0
    0.3649    0.1178    3.5911 C   0  0  1  0  0  0  0  0  0  0  0  0
    0.6054   -0.8818    3.9575 H   0  0  0  0  0  0  0  0  0  0  0  0
    1.1977    0.4965    3.0000 H   0  0  0  0  0  0  0  0  0  0  0  0
    0.1940    0.7764    4.4442 H   0  0  0  0  0  0  0  0  0  0  0  0
  1  3  1  0
  1 20  1  0
  1  2  1  0
  3  4  1  6
  3  5  1  0
  3 16  1  0
  5  8  1  0
  5  7  1  6
  5  6  1  0
  8  9  1  1
  8 10  1  0
  8 11  1  0
 11 12  1  0
 12 14  1  1
 12 13  1  0
 12 15  1  0
 16 18  1  0
 16 17  1  0
 18 19  1  0
 18 26  1  0
 20 21  1  0
 20 22  1  0
 22 24  1  6
 22 23  1  0
 22 25  1  0
 26 27  1  1
 26 28  1  0
 26 29  1  0
M  END
$$$$
