 energy: -42.539526752106 gnorm: 0.000016305211 xtb: 6.5.1 (9af7eec)
     RDKit          3D

 29 28  0  0  0  0  0  0  0  0999 V2000
   -0.8013   -0.7826    0.0830 N   0  0  0  0  0  0  0  0  0  0  0  0
   -1.2102   -0.9527   -0.8226 H   0  0  0  0  0  0  0  0  0  0  0  0
   -0.9227    0.5649    0.6137 C   0  0  1  0  0  0  0  0  0  0  0  0
   -0.0661    0.7301    1.2778 H   0  0  0  0  0  0  0  0  0  0  0  0
   -0.9149    1.5881   -0.5166 C   0  0  2  0  0  0  0  0  0  0  0  0
   -1.1030    2.5714   -0.0839 H   0  0  0  0  0  0  0  0  0  0  0  0
   -1.7380    1.3691   -1.2016 H   0  0  0  0  0  0  0  0  0  0  0  0
    0.3986    1.6079   -1.2796 C   0  0  2  0  0  0  0  0  0  0  0  0
    0.3379    2.2938   -2.1256 H   0  0  0  0  0  0  0  0  0  0  0  0
    0.6659    0.6119   -1.6378 H   0  0  0  0  0  0  0  0  0  0  0  0
    1.7664    2.1874   -0.2076 S   0  0  0  0  0  0  0  0  0  0  0  0
    3.1020    2.1154   -1.4322 C   0  0  2  0  0  0  0  0  0  0  0  0
    3.2240    1.0929   -1.7797 H   0  0  0  0  0  0  0  0  0  0  0  0
    4.0051    2.4465   -0.9312 H   0  0  0  0  0  0  0  0  0  0  0  0
    2.8726    2.7782   -2.2624 H   0  0  0  0  0  0  0  0  0  0  0  0
   -2.2224    0.6784    1.4412 C   0  0  0  0  0  0  0  0  0  0  0  0
   -3.2097    1.2584    1.0372 O   0  0  0  0  0  0  0  0  0  0  0  0
   -2.1298    0.0569    2.6258 N   0  0  0  0  0  0  0  0  0  0  0  0
   -1.2884   -0.4716    2.8327 H   0  0  0  0  0  0  0  0  0  0  0  0
   -0.3244   -1.8160    0.8075 C   0  0  0  0  0  0  0  0  0  0  0  0
    0.0357   -1.6923    1.9638 O   0  0  0  0  0  0  0  0  0  0  0  0
   -0.2737   -3.1259    0.0536 C   0  0  2  0  0  0  0  0  0  0  0  0
   -1.2832   -3.4486   -0.1938 H   0  0  0  0  0  0  0  0  0  0  0  0
    0.1974   -3.8796    0.6774 H   0  0  0  0  0  0  0  0  0  0  0  0
    0.2934   -3.0133   -0.8676 H   0  0  0  0  0  0  0  0  0  0  0  0
   -3.2337   -0.0236    3.5502 C   0  0  1  0  0  0  0  0  0  0  0  0
   -3.5585   -1.0584    3.6772 H   0  0  0  0  0  0  0  0  0  0  0  0
   -2.9429    0.3791    4.5215 H   0  0  0  0  0  0  0  0  0  0  0  0
   -4.0536    0.5660    3.1429 H   0  0  0  0  0  0  0  0  0  0  0  0
  1  3  1  0
  1 20  1  0
  1  2  1  0
  3  4  1  1
  3  5  1  0
  3 16  1  0
  5  8  1  0
  5  7  1  6
  5  6  1  0
  8  9  1  6
  8 10  1  0
  8 11  1  0
 11 12  1  0
 12 14  1  1
 12 13  1  0
 12 15  1  0
 16 18  1  0
 16 17  1  0
 18 19  1  0
 18 26  1  0
 20 21  1  0
 20 22  1  0
 22 24  1  1
 22 23  1  0
 22 25  1  0
 26 27  1  1
 26 28  1  0
 26 29  1  0
M  END
$$$$
