 energy: -42.539636876184 gnorm: 0.000048084634 xtb: 6.5.1 (9af7eec)
     RDKit          3D

 29 28  0  0  0  0  0  0  0  0999 V2000
   -2.2736   -0.9419    0.2191 N   0  0  0  0  0  0  0  0  0  0  0  0
   -2.8757   -1.2612   -0.5296 H   0  0  0  0  0  0  0  0  0  0  0  0
   -2.1133    0.4906    0.2719 C   0  0  1  0  0  0  0  0  0  0  0  0
   -2.0114    0.7801    1.3245 H   0  0  0  0  0  0  0  0  0  0  0  0
   -0.8669    0.9419   -0.5122 C   0  0  2  0  0  0  0  0  0  0  0  0
   -0.8576    2.0305   -0.5973 H   0  0  0  0  0  0  0  0  0  0  0  0
   -0.9259    0.5249   -1.5201 H   0  0  0  0  0  0  0  0  0  0  0  0
    0.4116    0.4838    0.1729 C   0  0  2  0  0  0  0  0  0  0  0  0
    0.4479   -0.5995    0.2747 H   0  0  0  0  0  0  0  0  0  0  0  0
    0.4980    0.9287    1.1633 H   0  0  0  0  0  0  0  0  0  0  0  0
    1.8980    1.0145   -0.7368 S   0  0  0  0  0  0  0  0  0  0  0  0
    1.9299   -0.2438   -2.0448 C   0  0  2  0  0  0  0  0  0  0  0  0
    1.9650   -1.2307   -1.5921 H   0  0  0  0  0  0  0  0  0  0  0  0
    2.8304   -0.0681   -2.6234 H   0  0  0  0  0  0  0  0  0  0  0  0
    1.0572   -0.1430   -2.6834 H   0  0  0  0  0  0  0  0  0  0  0  0
   -3.3572    1.1224   -0.3617 C   0  0  0  0  0  0  0  0  0  0  0  0
   -4.0790    0.4913   -1.1073 O   0  0  0  0  0  0  0  0  0  0  0  0
   -3.5468    2.4145   -0.0444 N   0  0  0  0  0  0  0  0  0  0  0  0
   -2.9176    2.8646    0.6012 H   0  0  0  0  0  0  0  0  0  0  0  0
   -1.9927   -1.7469    1.2714 C   0  0  0  0  0  0  0  0  0  0  0  0
   -1.4293   -1.3436    2.2669 O   0  0  0  0  0  0  0  0  0  0  0  0
   -2.4164   -3.1842    1.0622 C   0  0  2  0  0  0  0  0  0  0  0  0
   -3.5020   -3.2422    1.0227 H   0  0  0  0  0  0  0  0  0  0  0  0
   -2.0564   -3.7898    1.8886 H   0  0  0  0  0  0  0  0  0  0  0  0
   -2.0134   -3.5656    0.1271 H   0  0  0  0  0  0  0  0  0  0  0  0
   -4.6379    3.1978   -0.5736 C   0  0  1  0  0  0  0  0  0  0  0  0
   -4.2594    4.0540   -1.1342 H   0  0  0  0  0  0  0  0  0  0  0  0
   -5.2101    2.5535   -1.2386 H   0  0  0  0  0  0  0  0  0  0  0  0
   -5.2836    3.5523    0.2313 H   0  0  0  0  0  0  0  0  0  0  0  0
  1  3  1  0
  1 20  1  0
  1  2  1  0
  3  4  1  1
  3  5  1  0
  3 16  1  0
  5  8  1  0
  5  7  1  6
  5  6  1  0
  8  9  1  1
  8 10  1  0
  8 11  1  0
 11 12  1  0
 12 14  1  6
 12 13  1  0
 12 15  1  0
 16 18  1  0
 16 17  1  0
 18 19  1  0
 18 26  1  0
 20 21  1  0
 20 22  1  0
 22 24  1  1
 22 23  1  0
 22 25  1  0
 26 27  1  6
 26 28  1  0
 26 29  1  0
M  END
$$$$
