 energy: -42.537639757917 gnorm: 0.000049054449 xtb: 6.5.1 (9af7eec)
     RDKit          3D

 29 28  0  0  0  0  0  0  0  0999 V2000
   -1.1477    0.7374    0.5690 N   0  0  0  0  0  0  0  0  0  0  0  0
   -0.2971    0.9663    1.0623 H   0  0  0  0  0  0  0  0  0  0  0  0
   -1.6000    1.7099   -0.3890 C   0  0  1  0  0  0  0  0  0  0  0  0
   -2.1761    1.1737   -1.1529 H   0  0  0  0  0  0  0  0  0  0  0  0
   -2.5238    2.7637    0.2606 C   0  0  2  0  0  0  0  0  0  0  0  0
   -3.3817    2.2384    0.6850 H   0  0  0  0  0  0  0  0  0  0  0  0
   -2.8850    3.4442   -0.5147 H   0  0  0  0  0  0  0  0  0  0  0  0
   -1.8402    3.5810    1.3469 C   0  0  2  0  0  0  0  0  0  0  0  0
   -2.4629    4.4361    1.6162 H   0  0  0  0  0  0  0  0  0  0  0  0
   -0.8609    3.9332    1.0192 H   0  0  0  0  0  0  0  0  0  0  0  0
   -1.5925    2.6170    2.8837 S   0  0  0  0  0  0  0  0  0  0  0  0
   -0.8570    3.9365    3.8875 C   0  0  2  0  0  0  0  0  0  0  0  0
    0.0616    4.2772    3.4175 H   0  0  0  0  0  0  0  0  0  0  0  0
   -0.6406    3.5091    4.8607 H   0  0  0  0  0  0  0  0  0  0  0  0
   -1.5630    4.7565    3.9900 H   0  0  0  0  0  0  0  0  0  0  0  0
   -0.3785    2.3921   -1.0058 C   0  0  0  0  0  0  0  0  0  0  0  0
    0.6892    2.4553   -0.4314 O   0  0  0  0  0  0  0  0  0  0  0  0
   -0.6102    2.9464   -2.2117 N   0  0  0  0  0  0  0  0  0  0  0  0
   -1.5097    2.8258   -2.6490 H   0  0  0  0  0  0  0  0  0  0  0  0
   -1.8593   -0.3738    0.8619 C   0  0  0  0  0  0  0  0  0  0  0  0
   -2.8912   -0.6537    0.2873 O   0  0  0  0  0  0  0  0  0  0  0  0
   -1.2395   -1.2107    1.9566 C   0  0  2  0  0  0  0  0  0  0  0  0
   -0.2143   -1.4671    1.7016 H   0  0  0  0  0  0  0  0  0  0  0  0
   -1.8202   -2.1178    2.0929 H   0  0  0  0  0  0  0  0  0  0  0  0
   -1.2390   -0.6379    2.8815 H   0  0  0  0  0  0  0  0  0  0  0  0
    0.4040    3.6599   -2.9506 C   0  0  1  0  0  0  0  0  0  0  0  0
    0.0900    4.6878   -3.1408 H   0  0  0  0  0  0  0  0  0  0  0  0
    1.3075    3.6632   -2.3435 H   0  0  0  0  0  0  0  0  0  0  0  0
    0.6098    3.1659   -3.9015 H   0  0  0  0  0  0  0  0  0  0  0  0
  1  3  1  0
  1 20  1  0
  1  2  1  0
  3  4  1  6
  3  5  1  0
  3 16  1  0
  5  8  1  0
  5  7  1  6
  5  6  1  0
  8  9  1  1
  8 10  1  0
  8 11  1  0
 11 12  1  0
 12 14  1  1
 12 13  1  0
 12 15  1  0
 16 18  1  0
 16 17  1  0
 18 19  1  0
 18 26  1  0
 20 21  1  0
 20 22  1  0
 22 24  1  1
 22 23  1  0
 22 25  1  0
 26 27  1  6
 26 28  1  0
 26 29  1  0
M  END
$$$$
