 energy: -42.543953980924 gnorm: 0.000038769001 xtb: 6.5.1 (9af7eec)
     RDKit          3D

 29 28  0  0  0  0  0  0  0  0999 V2000
   -0.8958   -0.8982   -0.1139 N   0  0  0  0  0  0  0  0  0  0  0  0
   -1.4619   -1.1308   -0.9144 H   0  0  0  0  0  0  0  0  0  0  0  0
   -0.9553    0.4722    0.3656 C   0  0  1  0  0  0  0  0  0  0  0  0
   -0.0303    0.6535    0.9235 H   0  0  0  0  0  0  0  0  0  0  0  0
   -1.0899    1.4598   -0.7900 C   0  0  2  0  0  0  0  0  0  0  0  0
   -2.1529    1.5851   -1.0123 H   0  0  0  0  0  0  0  0  0  0  0  0
   -0.5924    1.0629   -1.6787 H   0  0  0  0  0  0  0  0  0  0  0  0
   -0.4626    2.8041   -0.4470 C   0  0  2  0  0  0  0  0  0  0  0  0
   -0.6609    3.5389   -1.2281 H   0  0  0  0  0  0  0  0  0  0  0  0
    0.6154    2.7021   -0.3212 H   0  0  0  0  0  0  0  0  0  0  0  0
   -1.0400    3.5056    1.1342 S   0  0  0  0  0  0  0  0  0  0  0  0
   -2.7286    3.9909    0.6869 C   0  0  2  0  0  0  0  0  0  0  0  0
   -2.7017    4.5826   -0.2237 H   0  0  0  0  0  0  0  0  0  0  0  0
   -3.1041    4.5901    1.5096 H   0  0  0  0  0  0  0  0  0  0  0  0
   -3.3407    3.1014    0.5661 H   0  0  0  0  0  0  0  0  0  0  0  0
   -2.1573    0.5845    1.3275 C   0  0  1  0  0  0  0  0  0  0  0  0
   -3.2638    0.9191    0.9444 O   0  0  0  0  0  0  0  0  0  0  0  0
   -1.8636    0.2189    2.5807 N   0  0  0  0  0  0  0  0  0  0  0  0
   -0.9473   -0.1657    2.7718 H   0  0  0  0  0  0  0  0  0  0  0  0
   -0.3436   -1.8814    0.6321 C   0  0  0  0  0  0  0  0  0  0  0  0
    0.1897   -1.6606    1.7026 O   0  0  0  0  0  0  0  0  0  0  0  0
   -0.4318   -3.2539    0.0052 C   0  0  2  0  0  0  0  0  0  0  0  0
   -1.4710   -3.5752   -0.0286 H   0  0  0  0  0  0  0  0  0  0  0  0
    0.1380   -3.9585    0.6036 H   0  0  0  0  0  0  0  0  0  0  0  0
   -0.0376   -3.2354   -1.0081 H   0  0  0  0  0  0  0  0  0  0  0  0
   -2.8474    0.1842    3.6339 C   0  0  1  0  0  0  0  0  0  0  0  0
   -2.9944   -0.8361    3.9932 H   0  0  0  0  0  0  0  0  0  0  0  0
   -2.5298    0.8144    4.4659 H   0  0  0  0  0  0  0  0  0  0  0  0
   -3.7840    0.5641    3.2286 H   0  0  0  0  0  0  0  0  0  0  0  0
  1  3  1  0
  1 20  1  0
  1  2  1  0
  3  4  1  1
  3  5  1  0
  3 16  1  0
  5  8  1  0
  5  7  1  6
  5  6  1  0
  8  9  1  6
  8 10  1  0
  8 11  1  0
 11 12  1  0
 12 14  1  1
 12 13  1  0
 12 15  1  0
 16 18  1  0
 16 17  1  6
 18 19  1  0
 18 26  1  0
 20 21  1  0
 20 22  1  0
 22 24  1  1
 22 23  1  0
 22 25  1  0
 26 27  1  1
 26 28  1  0
 26 29  1  0
M  END
$$$$
