-45.78975852
     RDKit          3D

 29 28  0  0  1  0  0  0  0  0999 V2000
    0.9785   -0.0805   -0.2496 N   0  0  0  0  0  0  0  0  0  0  0  0
   -0.1557   -0.8115    0.2572 C   0  0  2  0  0  0  0  0  0  0  0  0
    0.0223   -2.2734   -0.1551 C   0  0  0  0  0  0  0  0  0  0  0  0
    0.7563   -2.5799   -1.0747 O   0  0  0  0  0  0  0  0  0  0  0  0
   -1.4724   -0.2683   -0.3274 C   0  0  1  0  0  0  0  0  0  0  0  0
   -1.7269    1.1714    0.1178 C   0  0  2  0  0  0  0  0  0  0  0  0
   -0.8614    2.1531   -0.6605 C   0  0  0  0  0  0  0  0  0  0  0  0
   -0.6869    2.0728   -1.8572 O   0  0  0  0  0  0  0  0  0  0  0  0
    1.3263   -0.4008   -1.1430 H   0  0  0  0  0  0  0  0  0  0  0  0
   -0.1484   -0.6945    1.3465 H   0  0  0  0  0  0  0  0  0  0  0  0
   -1.4075   -0.2886   -1.4175 H   0  0  0  0  0  0  0  0  0  0  0  0
   -2.2984   -0.9073   -0.0141 H   0  0  0  0  0  0  0  0  0  0  0  0
   -1.5530    1.2809    1.1880 H   0  0  0  0  0  0  0  0  0  0  0  0
   -2.7653    1.4341   -0.0972 H   0  0  0  0  0  0  0  0  0  0  0  0
    1.6166    0.8768    0.4462 C   0  0  0  0  0  0  0  0  0  0  0  0
    1.2462    1.2477    1.5468 O   0  0  0  0  0  0  0  0  0  0  0  0
   -0.6679   -3.2114    0.5220 N   0  0  0  0  0  0  0  0  0  0  0  0
   -0.5442   -4.1491    0.1631 H   0  0  0  0  0  0  0  0  0  0  0  0
   -1.5976   -3.0686    1.6135 C   0  0  1  0  0  0  0  0  0  0  0  0
   -2.6323   -3.0721    1.2570 H   0  0  0  0  0  0  0  0  0  0  0  0
   -1.4694   -3.9020    2.3043 H   0  0  0  0  0  0  0  0  0  0  0  0
   -1.4173   -2.1429    2.1536 H   0  0  0  0  0  0  0  0  0  0  0  0
    2.8058    1.4619   -0.2804 C   0  0  2  0  0  0  0  0  0  0  0  0
    2.4771    1.8913   -1.2245 H   0  0  0  0  0  0  0  0  0  0  0  0
    3.5347    0.6823   -0.4887 H   0  0  0  0  0  0  0  0  0  0  0  0
    3.2665    2.2319    0.3318 H   0  0  0  0  0  0  0  0  0  0  0  0
   -0.3768    3.1786    0.0790 N   0  0  0  0  0  0  0  0  0  0  0  0
    0.2539    3.8181   -0.3796 H   0  0  0  0  0  0  0  0  0  0  0  0
   -0.2691    3.0775    1.0747 H   0  0  0  0  0  0  0  0  0  0  0  0
  1  2  1  0
  1 15  1  0
  2 10  1  1
  3  2  1  0
  3 17  1  0
  4  3  2  0
  5 12  1  6
  5  6  1  0
  5  2  1  0
  6 13  1  1
  7 27  1  0
  7  6  1  0
  8  7  2  0
  9  1  1  0
 11  5  1  0
 14  6  1  0
 15 16  2  0
 17 19  1  0
 18 17  1  0
 19 22  1  1
 19 21  1  0
 20 19  1  0
 23 26  1  1
 23 15  1  0
 24 23  1  0
 25 23  1  0
 27 29  1  0
 28 27  1  0
M  END
$$$$
