-45.78946811
     RDKit          3D

 29 28  0  0  1  0  0  0  0  0999 V2000
    0.9480    0.5676    0.4188 N   0  0  0  0  0  0  0  0  0  0  0  0
   -0.1738   -0.2168    0.8997 C   0  0  2  0  0  0  0  0  0  0  0  0
   -0.4587   -1.3235   -0.1257 C   0  0  0  0  0  0  0  0  0  0  0  0
   -0.9009   -1.0845   -1.2386 O   0  0  0  0  0  0  0  0  0  0  0  0
   -1.3836    0.6919    1.1763 C   0  0  1  0  0  0  0  0  0  0  0  0
   -2.2747    1.0127   -0.0271 C   0  0  2  0  0  0  0  0  0  0  0  0
   -1.5192    1.6347   -1.1888 C   0  0  0  0  0  0  0  0  0  0  0  0
   -0.5681    2.3817   -1.0456 O   0  0  0  0  0  0  0  0  0  0  0  0
    0.7220    1.3601   -0.1737 H   0  0  0  0  0  0  0  0  0  0  0  0
    0.1479   -0.6679    1.8427 H   0  0  0  0  0  0  0  0  0  0  0  0
   -2.0056    0.2172    1.9381 H   0  0  0  0  0  0  0  0  0  0  0  0
   -0.9951    1.6251    1.5891 H   0  0  0  0  0  0  0  0  0  0  0  0
   -3.0284    1.7393    0.2904 H   0  0  0  0  0  0  0  0  0  0  0  0
   -2.7902    0.1167   -0.3690 H   0  0  0  0  0  0  0  0  0  0  0  0
    2.2240    0.2375    0.6836 C   0  0  0  0  0  0  0  0  0  0  0  0
    2.5330   -0.7288    1.3603 O   0  0  0  0  0  0  0  0  0  0  0  0
   -0.1814   -2.5864    0.2376 N   0  0  0  0  0  0  0  0  0  0  0  0
   -0.3416   -3.2657   -0.4937 H   0  0  0  0  0  0  0  0  0  0  0  0
    0.4460   -3.0664    1.4502 C   0  0  1  0  0  0  0  0  0  0  0  0
    0.7169   -4.1095    1.3096 H   0  0  0  0  0  0  0  0  0  0  0  0
    1.3522   -2.4952    1.6657 H   0  0  0  0  0  0  0  0  0  0  0  0
   -0.2397   -2.9988    2.2987 H   0  0  0  0  0  0  0  0  0  0  0  0
    3.2318    1.1841    0.0711 C   0  0  2  0  0  0  0  0  0  0  0  0
    3.1995    1.0952   -1.0126 H   0  0  0  0  0  0  0  0  0  0  0  0
    4.2277    0.9303    0.4224 H   0  0  0  0  0  0  0  0  0  0  0  0
    2.9962    2.2104    0.3405 H   0  0  0  0  0  0  0  0  0  0  0  0
   -2.0465    1.3793   -2.4029 N   0  0  0  0  0  0  0  0  0  0  0  0
   -1.5224    1.6926   -3.2053 H   0  0  0  0  0  0  0  0  0  0  0  0
   -2.6368    0.5764   -2.5323 H   0  0  0  0  0  0  0  0  0  0  0  0
  1 15  1  0
  1  2  1  0
  2  5  1  0
  2 10  1  1
  3 17  1  0
  3  2  1  0
  4  3  2  0
  5 12  1  1
  5 11  1  0
  6 13  1  1
  6  5  1  0
  7  8  2  0
  7  6  1  0
  9  1  1  0
 14  6  1  0
 15 16  2  0
 17 19  1  0
 18 17  1  0
 19 21  1  1
 19 22  1  0
 20 19  1  0
 23 26  1  6
 23 25  1  0
 23 15  1  0
 24 23  1  0
 27  7  1  0
 28 27  1  0
 29 27  1  0
M  END
$$$$
