-45.78766139
     RDKit          3D

 29 28  0  0  1  0  0  0  0  0999 V2000
    1.0395    0.2879    0.0259 N   0  0  0  0  0  0  0  0  0  0  0  0
   -0.0035   -0.1737    0.9244 C   0  0  2  0  0  0  0  0  0  0  0  0
   -0.7895   -1.3238    0.2855 C   0  0  0  0  0  0  0  0  0  0  0  0
   -1.9769   -1.2654    0.0111 O   0  0  0  0  0  0  0  0  0  0  0  0
   -0.8704    1.0108    1.3939 C   0  0  1  0  0  0  0  0  0  0  0  0
   -2.0106    1.4576    0.4653 C   0  0  2  0  0  0  0  0  0  0  0  0
   -1.6663    1.4313   -1.0110 C   0  0  0  0  0  0  0  0  0  0  0  0
   -0.6410    1.8996   -1.4774 O   0  0  0  0  0  0  0  0  0  0  0  0
    0.7273    0.8954   -0.7262 H   0  0  0  0  0  0  0  0  0  0  0  0
    0.5182   -0.5726    1.8055 H   0  0  0  0  0  0  0  0  0  0  0  0
   -1.3134    0.7541    2.3574 H   0  0  0  0  0  0  0  0  0  0  0  0
   -0.1838    1.8449    1.5548 H   0  0  0  0  0  0  0  0  0  0  0  0
   -2.2690    2.4899    0.7168 H   0  0  0  0  0  0  0  0  0  0  0  0
   -2.8851    0.8336    0.6348 H   0  0  0  0  0  0  0  0  0  0  0  0
    2.3390    0.3213    0.3948 C   0  0  0  0  0  0  0  0  0  0  0  0
    2.7558   -0.2341    1.3949 O   0  0  0  0  0  0  0  0  0  0  0  0
   -0.1068   -2.4548    0.0338 N   0  0  0  0  0  0  0  0  0  0  0  0
   -0.6642   -3.1669   -0.4211 H   0  0  0  0  0  0  0  0  0  0  0  0
    1.2819   -2.7860    0.2361 C   0  0  1  0  0  0  0  0  0  0  0  0
    1.8449   -2.6837   -0.6961 H   0  0  0  0  0  0  0  0  0  0  0  0
    1.7390   -2.1427    0.9832 H   0  0  0  0  0  0  0  0  0  0  0  0
    1.3548   -3.8195    0.5749 H   0  0  0  0  0  0  0  0  0  0  0  0
    3.2206    1.0653   -0.5812 C   0  0  2  0  0  0  0  0  0  0  0  0
    2.9113    2.1065   -0.6362 H   0  0  0  0  0  0  0  0  0  0  0  0
    3.1294    0.6279   -1.5724 H   0  0  0  0  0  0  0  0  0  0  0  0
    4.2540    1.0103   -0.2518 H   0  0  0  0  0  0  0  0  0  0  0  0
   -2.6239    0.9025   -1.7964 N   0  0  0  0  0  0  0  0  0  0  0  0
   -2.4212    0.7981   -2.7787 H   0  0  0  0  0  0  0  0  0  0  0  0
   -3.3178    0.2942   -1.3965 H   0  0  0  0  0  0  0  0  0  0  0  0
  1 15  1  0
  1  2  1  0
  2  5  1  0
  2 10  1  1
  3  2  1  0
  4  3  2  0
  5 12  1  1
  5 11  1  0
  6 14  1  6
  6 13  1  0
  6  5  1  0
  7  6  1  0
  8  7  2  0
  9  1  1  0
 15 16  2  0
 17 19  1  0
 17  3  1  0
 18 17  1  0
 19 22  1  1
 19 21  1  0
 20 19  1  0
 23 26  1  1
 23 15  1  0
 24 23  1  0
 25 23  1  0
 27 29  1  0
 27  7  1  0
 28 27  1  0
M  END
$$$$
