-45.79207001
     RDKit          3D

 29 28  0  0  1  0  0  0  0  0999 V2000
    1.0613    0.2470   -0.0673 N   0  0  0  0  0  0  0  0  0  0  0  0
    0.1091   -0.1094    0.9584 C   0  0  2  0  0  0  0  0  0  0  0  0
   -0.8338   -1.2172    0.4709 C   0  0  0  0  0  0  0  0  0  0  0  0
   -2.0471   -1.0989    0.5034 O   0  0  0  0  0  0  0  0  0  0  0  0
   -0.7100    1.1049    1.4336 C   0  0  1  0  0  0  0  0  0  0  0  0
   -1.1091    2.0549    0.2939 C   0  0  2  0  0  0  0  0  0  0  0  0
   -1.6974    1.3097   -0.8922 C   0  0  0  0  0  0  0  0  0  0  0  0
   -1.0063    0.9155   -1.8160 O   0  0  0  0  0  0  0  0  0  0  0  0
    0.6608    0.5515   -0.9503 H   0  0  0  0  0  0  0  0  0  0  0  0
    0.6895   -0.4997    1.8052 H   0  0  0  0  0  0  0  0  0  0  0  0
   -1.6057    0.7218    1.9248 H   0  0  0  0  0  0  0  0  0  0  0  0
   -0.1265    1.6690    2.1624 H   0  0  0  0  0  0  0  0  0  0  0  0
   -0.2248    2.5923   -0.0534 H   0  0  0  0  0  0  0  0  0  0  0  0
   -1.8311    2.7805    0.6697 H   0  0  0  0  0  0  0  0  0  0  0  0
    2.3938    0.2483    0.1382 C   0  0  0  0  0  0  0  0  0  0  0  0
    2.9006   -0.1333    1.1763 O   0  0  0  0  0  0  0  0  0  0  0  0
   -0.2692   -2.3523    0.0276 N   0  0  0  0  0  0  0  0  0  0  0  0
   -0.9305   -3.0275   -0.3322 H   0  0  0  0  0  0  0  0  0  0  0  0
    1.1240   -2.7151   -0.0531 C   0  0  1  0  0  0  0  0  0  0  0  0
    1.7014   -2.2186    0.7235 H   0  0  0  0  0  0  0  0  0  0  0  0
    1.2153   -3.7920    0.0846 H   0  0  0  0  0  0  0  0  0  0  0  0
    1.5473   -2.4505   -1.0262 H   0  0  0  0  0  0  0  0  0  0  0  0
    3.1869    0.7574   -1.0453 C   0  0  2  0  0  0  0  0  0  0  0  0
    2.7964    0.3529   -1.9750 H   0  0  0  0  0  0  0  0  0  0  0  0
    4.2304    0.4802   -0.9279 H   0  0  0  0  0  0  0  0  0  0  0  0
    3.1158    1.8426   -1.0827 H   0  0  0  0  0  0  0  0  0  0  0  0
   -3.0365    1.1779   -0.8828 N   0  0  0  0  0  0  0  0  0  0  0  0
   -3.4410    0.5569   -1.5666 H   0  0  0  0  0  0  0  0  0  0  0  0
   -3.5384    1.2768   -0.0172 H   0  0  0  0  0  0  0  0  0  0  0  0
  1 15  1  0
  1  2  1  0
  2  5  1  0
  2 10  1  1
  3  4  2  0
  3  2  1  0
  5 11  1  1
  5 12  1  0
  6 14  1  1
  6  5  1  0
  7 27  1  0
  7  6  1  0
  8  7  2  0
  9  1  1  0
 13  6  1  0
 15 16  2  0
 17  3  1  0
 18 17  1  0
 19 17  1  0
 19 21  1  1
 19 20  1  0
 22 19  1  0
 23 25  1  1
 23 15  1  0
 24 23  1  0
 26 23  1  0
 27 29  1  0
 28 27  1  0
M  END
$$$$
