-45.79070544
     RDKit          3D

 29 28  0  0  1  0  0  0  0  0999 V2000
    1.8854    0.0883   -0.3074 N   0  0  0  0  0  0  0  0  0  0  0  0
    0.4643    0.3615   -0.2025 C   0  0  2  0  0  0  0  0  0  0  0  0
   -0.2653   -0.9918   -0.1776 C   0  0  0  0  0  0  0  0  0  0  0  0
   -0.4342   -1.6216   -1.2118 O   0  0  0  0  0  0  0  0  0  0  0  0
   -0.0108    1.1838   -1.4028 C   0  0  1  0  0  0  0  0  0  0  0  0
   -1.3791    1.8166   -1.1338 C   0  0  2  0  0  0  0  0  0  0  0  0
   -2.4021    0.7704   -0.7190 C   0  0  0  0  0  0  0  0  0  0  0  0
   -2.7898    0.6456    0.4235 O   0  0  0  0  0  0  0  0  0  0  0  0
    2.1939   -0.3283   -1.1724 H   0  0  0  0  0  0  0  0  0  0  0  0
    0.3115    0.9144    0.7249 H   0  0  0  0  0  0  0  0  0  0  0  0
    0.7163    1.9723   -1.6070 H   0  0  0  0  0  0  0  0  0  0  0  0
   -0.0597    0.5221   -2.2715 H   0  0  0  0  0  0  0  0  0  0  0  0
   -1.7303    2.3313   -2.0294 H   0  0  0  0  0  0  0  0  0  0  0  0
   -1.2940    2.5393   -0.3212 H   0  0  0  0  0  0  0  0  0  0  0  0
    2.7188    0.1160    0.7585 C   0  0  0  0  0  0  0  0  0  0  0  0
    2.3572    0.4616    1.8643 O   0  0  0  0  0  0  0  0  0  0  0  0
   -0.6189   -1.4856    1.0134 N   0  0  0  0  0  0  0  0  0  0  0  0
   -1.1207   -2.3622    0.9669 H   0  0  0  0  0  0  0  0  0  0  0  0
   -0.6227   -0.8068    2.2913 C   0  0  1  0  0  0  0  0  0  0  0  0
   -0.8238   -1.5397    3.0684 H   0  0  0  0  0  0  0  0  0  0  0  0
    0.3475   -0.3497    2.4875 H   0  0  0  0  0  0  0  0  0  0  0  0
   -1.4047   -0.0431    2.3111 H   0  0  0  0  0  0  0  0  0  0  0  0
    4.1364   -0.2982    0.4301 C   0  0  2  0  0  0  0  0  0  0  0  0
    4.1565   -1.3501    0.1524 H   0  0  0  0  0  0  0  0  0  0  0  0
    4.7644   -0.1487    1.3032 H   0  0  0  0  0  0  0  0  0  0  0  0
    4.5211    0.2907   -0.3992 H   0  0  0  0  0  0  0  0  0  0  0  0
   -2.8804    0.0207   -1.7364 N   0  0  0  0  0  0  0  0  0  0  0  0
   -3.4528   -0.7750   -1.5027 H   0  0  0  0  0  0  0  0  0  0  0  0
   -2.3925   -0.0176   -2.6143 H   0  0  0  0  0  0  0  0  0  0  0  0
  1  2  1  0
  1 15  1  0
  2  3  1  0
  2 10  1  1
  3 17  1  0
  4  3  2  0
  5  6  1  0
  5  2  1  0
  6  7  1  0
  6 14  1  1
  7  8  2  0
  9  1  1  0
  5 11  1  6
 12  5  1  0
 13  6  1  0
 15 16  2  0
 17 19  1  0
 18 17  1  0
 19 22  1  6
 19 21  1  0
 19 20  1  0
 23 15  1  0
 23 25  1  1
 24 23  1  0
 26 23  1  0
 27 28  1  0
 27  7  1  0
 29 27  1  0
M  END
$$$$
