-45.78979120
     RDKit          3D

 29 28  0  0  1  0  0  0  0  0999 V2000
    0.7820    0.5834    0.4213 N   0  0  0  0  0  0  0  0  0  0  0  0
   -0.2849   -0.3346    0.7690 C   0  0  2  0  0  0  0  0  0  0  0  0
   -0.2589   -1.5128   -0.2140 C   0  0  0  0  0  0  0  0  0  0  0  0
   -0.4019   -1.3628   -1.4209 O   0  0  0  0  0  0  0  0  0  0  0  0
   -1.6456    0.3734    0.8465 C   0  0  1  0  0  0  0  0  0  0  0  0
   -2.2962    0.7630   -0.4856 C   0  0  2  0  0  0  0  0  0  0  0  0
   -1.5121    1.8348   -1.2315 C   0  0  0  0  0  0  0  0  0  0  0  0
   -1.6155    3.0204   -0.9949 O   0  0  0  0  0  0  0  0  0  0  0  0
    0.5790    1.3147   -0.2414 H   0  0  0  0  0  0  0  0  0  0  0  0
   -0.0399   -0.7032    1.7690 H   0  0  0  0  0  0  0  0  0  0  0  0
   -2.3323   -0.2902    1.3775 H   0  0  0  0  0  0  0  0  0  0  0  0
   -1.5136    1.2741    1.4508 H   0  0  0  0  0  0  0  0  0  0  0  0
   -3.2805    1.1786   -0.2639 H   0  0  0  0  0  0  0  0  0  0  0  0
   -2.4159   -0.1142   -1.1195 H   0  0  0  0  0  0  0  0  0  0  0  0
    2.0493    0.3625    0.8345 C   0  0  0  0  0  0  0  0  0  0  0  0
    2.3441   -0.5743    1.5516 O   0  0  0  0  0  0  0  0  0  0  0  0
   -0.0529   -2.7349    0.2934 N   0  0  0  0  0  0  0  0  0  0  0  0
   -0.0029   -3.4653   -0.4042 H   0  0  0  0  0  0  0  0  0  0  0  0
    0.3028   -3.0985    1.6480 C   0  0  1  0  0  0  0  0  0  0  0  0
    1.1637   -2.5171    1.9867 H   0  0  0  0  0  0  0  0  0  0  0  0
   -0.5363   -2.9418    2.3294 H   0  0  0  0  0  0  0  0  0  0  0  0
    0.5658   -4.1528    1.6645 H   0  0  0  0  0  0  0  0  0  0  0  0
    3.0411    1.3862    0.3331 C   0  0  2  0  0  0  0  0  0  0  0  0
    3.9868    1.2558    0.8505 H   0  0  0  0  0  0  0  0  0  0  0  0
    2.6668    2.3931    0.4999 H   0  0  0  0  0  0  0  0  0  0  0  0
    3.1995    1.2433   -0.7342 H   0  0  0  0  0  0  0  0  0  0  0  0
   -0.6806    1.3393   -2.1711 N   0  0  0  0  0  0  0  0  0  0  0  0
   -0.1457    1.9707   -2.7445 H   0  0  0  0  0  0  0  0  0  0  0  0
   -0.5513    0.3369   -2.2568 H   0  0  0  0  0  0  0  0  0  0  0  0
  1  2  1  0
  1 15  1  0
  2  5  1  0
  2 10  1  1
  3 17  1  0
  3  2  1  0
  4  3  2  0
  5 11  1  1
  5 12  1  0
  6 13  1  1
  6  5  1  0
  7  8  2  0
  7  6  1  0
  9  1  1  0
 14  6  1  0
 15 16  2  0
 17 19  1  0
 18 17  1  0
 19 22  1  6
 19 20  1  0
 19 21  1  0
 23 25  1  6
 23 15  1  0
 23 24  1  0
 26 23  1  0
 27  7  1  0
 28 27  1  0
 29 27  1  0
M  END
$$$$
