 energy: -42.454646748518 gnorm: 0.000025255681 xtb: 6.5.1 (9af7eec)
     RDKit          3D

 26 26  0  0  0  0  0  0  0  0999 V2000
    3.2523   -0.0204    0.2704 C   0  0  1  0  0  0  0  0  0  0  0  0
    2.0227   -0.0958    1.1938 C   0  0  1  0  0  0  0  0  0  0  0  0
    0.7323    0.2072    0.3925 C   0  0  2  0  0  0  0  0  0  0  0  0
   -0.5437    0.0709    1.2451 C   0  0  2  0  0  0  0  0  0  0  0  0
   -1.0066   -1.3795    0.9612 C   0  0  2  0  0  0  0  0  0  0  0  0
   -0.6540   -2.2642    1.9802 O   0  0  0  0  0  0  0  0  0  0  0  0
   -0.3318   -1.7229   -0.3834 C   0  0  1  0  0  0  0  0  0  0  0  0
    3.2973   -1.1563   -0.5538 O   0  0  0  0  0  0  0  0  0  0  0  0
   -1.4982    1.0704    0.9927 O   0  0  0  0  0  0  0  0  0  0  0  0
    1.9859   -1.3758    1.7832 O   0  0  0  0  0  0  0  0  0  0  0  0
    0.5762   -0.6778   -0.7098 O   0  0  0  0  0  0  0  0  0  0  0  0
   -2.0320    1.1309   -0.3129 C   0  0  1  0  0  0  0  0  0  0  0  0
    3.2309    0.9066   -0.3151 H   0  0  0  0  0  0  0  0  0  0  0  0
    4.1661   -0.0432    0.8694 H   0  0  0  0  0  0  0  0  0  0  0  0
    2.1036    0.6412    1.9999 H   0  0  0  0  0  0  0  0  0  0  0  0
    0.8204    1.2228   -0.0102 H   0  0  0  0  0  0  0  0  0  0  0  0
   -0.3184    0.1812    2.3094 H   0  0  0  0  0  0  0  0  0  0  0  0
   -2.0955   -1.4308    0.8930 H   0  0  0  0  0  0  0  0  0  0  0  0
    0.2955   -2.1467    2.1670 H   0  0  0  0  0  0  0  0  0  0  0  0
    0.2068   -2.6738   -0.2932 H   0  0  0  0  0  0  0  0  0  0  0  0
   -1.0502   -1.8004   -1.2038 H   0  0  0  0  0  0  0  0  0  0  0  0
    2.4826   -1.1587   -1.0829 H   0  0  0  0  0  0  0  0  0  0  0  0
    2.4487   -1.9679    1.1642 H   0  0  0  0  0  0  0  0  0  0  0  0
   -2.6338    2.0374   -0.3378 H   0  0  0  0  0  0  0  0  0  0  0  0
   -1.2520    1.1949   -1.0766 H   0  0  0  0  0  0  0  0  0  0  0  0
   -2.6730    0.2707   -0.5313 H   0  0  0  0  0  0  0  0  0  0  0  0
  1 13  1  6
  1  2  1  0
  1  8  1  0
  1 14  1  0
  2 10  1  0
  2  3  1  0
  2 15  1  1
  3 16  1  6
  3 11  1  0
  3  4  1  0
  4  9  1  0
  4  5  1  0
  4 17  1  1
  5  7  1  0
  5 18  1  6
  5  6  1  0
  6 19  1  0
  7 21  1  6
  7 11  1  0
  7 20  1  0
  8 22  1  0
  9 12  1  0
 10 23  1  0
 12 25  1  6
 12 26  1  0
 12 24  1  0
M  END
$$$$
