 energy: -42.451398013871 gnorm: 0.000032514110 xtb: 6.5.1 (9af7eec)
     RDKit          3D

 26 26  0  0  0  0  0  0  0  0999 V2000
    3.0122    0.2508   -0.0679 C   0  0  1  0  0  0  0  0  0  0  0  0
    2.4517   -0.2356    1.2808 C   0  0  1  0  0  0  0  0  0  0  0  0
    2.3994   -1.7787    1.3044 C   0  0  2  0  0  0  0  0  0  0  0  0
    1.5025   -2.3462    2.4199 C   0  0  2  0  0  0  0  0  0  0  0  0
    2.5202   -2.7631    3.5051 C   0  0  2  0  0  0  0  0  0  0  0  0
    2.7705   -1.7343    4.4175 O   0  0  0  0  0  0  0  0  0  0  0  0
    3.7319   -3.1330    2.6403 C   0  0  1  0  0  0  0  0  0  0  0  0
    2.1568   -0.0382   -1.1407 O   0  0  0  0  0  0  0  0  0  0  0  0
    0.7711   -3.4254    1.8912 O   0  0  0  0  0  0  0  0  0  0  0  0
    3.2433    0.2295    2.3482 O   0  0  0  0  0  0  0  0  0  0  0  0
    3.7276   -2.2285    1.5521 O   0  0  0  0  0  0  0  0  0  0  0  0
   -0.3280   -3.8233    2.6754 C   0  0  1  0  0  0  0  0  0  0  0  0
    3.2170    1.3284    0.0040 H   0  0  0  0  0  0  0  0  0  0  0  0
    3.9466   -0.2760   -0.2768 H   0  0  0  0  0  0  0  0  0  0  0  0
    1.4502    0.1816    1.4336 H   0  0  0  0  0  0  0  0  0  0  0  0
    2.0518   -2.1535    0.3346 H   0  0  0  0  0  0  0  0  0  0  0  0
    0.8177   -1.5832    2.8187 H   0  0  0  0  0  0  0  0  0  0  0  0
    2.1731   -3.6163    4.0907 H   0  0  0  0  0  0  0  0  0  0  0  0
    2.9548   -0.9152    3.9230 H   0  0  0  0  0  0  0  0  0  0  0  0
    4.6778   -3.0209    3.1727 H   0  0  0  0  0  0  0  0  0  0  0  0
    3.6289   -4.1618    2.2741 H   0  0  0  0  0  0  0  0  0  0  0  0
    1.3268    0.4378   -1.0233 H   0  0  0  0  0  0  0  0  0  0  0  0
    4.1014   -0.2139    2.2519 H   0  0  0  0  0  0  0  0  0  0  0  0
   -0.8137   -4.6272    2.1267 H   0  0  0  0  0  0  0  0  0  0  0  0
   -0.0199   -4.1894    3.6602 H   0  0  0  0  0  0  0  0  0  0  0  0
   -1.0325   -2.9942    2.8127 H   0  0  0  0  0  0  0  0  0  0  0  0
  1 13  1  1
  1  2  1  0
  1  8  1  0
  1 14  1  0
  2 10  1  0
  2  3  1  0
  2 15  1  1
  3 16  1  6
  3 11  1  0
  3  4  1  0
  4  9  1  0
  4  5  1  0
  4 17  1  1
  5  7  1  0
  5 18  1  1
  5  6  1  0
  6 19  1  0
  7 21  1  6
  7 11  1  0
  7 20  1  0
  8 22  1  0
  9 12  1  0
 10 23  1  0
 12 25  1  1
 12 26  1  0
 12 24  1  0
M  END
$$$$
