-14.62620855
     RDKit          3D

 10  9  0  0  0  0  0  0  0  0999 V2000
   -0.5761    0.2335    0.4640 N   0  0  0  0  0  0  0  0  0  0  0  0
   -1.6995   -0.3274   -0.1649 N   0  0  0  0  0  0  0  0  0  0  0  0
   -1.5233   -1.3212   -0.2818 H   0  0  0  0  0  0  0  0  0  0  0  0
   -1.8659    0.0739   -1.0916 H   0  0  0  0  0  0  0  0  0  0  0  0
   -0.8507    1.1258    0.8704 H   0  0  0  0  0  0  0  0  0  0  0  0
    0.5471    0.3457   -0.4014 N   0  0  0  0  0  0  0  0  0  0  0  0
    1.6597   -0.3106    0.1684 N   0  0  0  0  0  0  0  0  0  0  0  0
    0.7412    1.3200   -0.6567 H   0  0  0  0  0  0  0  0  0  0  0  0
    2.1955    0.2674    0.8143 H   0  0  0  0  0  0  0  0  0  0  0  0
    2.2599   -0.6484   -0.5746 H   0  0  0  0  0  0  0  0  0  0  0  0
  1  5  1  0
  2  1  1  0
  3  2  1  0
  4  2  1  0
  6  7  1  0
  6  1  1  0
  7  9  1  0
  8  6  1  0
 10  7  1  0
M  END
$$$$
