SCONF/G1/struc.xyz
     RDKit          3D

 24 24  0  0  0  0  0  0  0  0999 V2000
   -0.6160   -1.4620   -0.2610 C   0  0  2  0  0  0  0  0  0  0  0  0
    0.6840   -1.1580    0.2330 O   0  0  0  0  0  0  0  0  0  0  0  0
    1.1960    0.1010   -0.2400 C   0  0  1  0  0  0  0  0  0  0  0  0
    0.2820    1.2350    0.2460 C   0  0  2  0  0  0  0  0  0  0  0  0
   -1.6180   -0.4150    0.2310 C   0  0  1  0  0  0  0  0  0  0  0  0
   -1.1560    0.9720   -0.2020 C   0  0  1  0  0  0  0  0  0  0  0  0
   -1.9650    2.0060    0.3550 O   0  0  0  0  0  0  0  0  0  0  0  0
    0.7700    2.4570   -0.2900 O   0  0  0  0  0  0  0  0  0  0  0  0
    2.6230    0.2070    0.2840 C   0  0  1  0  0  0  0  0  0  0  0  0
    3.4370   -0.8580   -0.1890 O   0  0  0  0  0  0  0  0  0  0  0  0
   -2.8850    1.8440    0.0880 H   0  0  0  0  0  0  0  0  0  0  0  0
    0.1140    3.1460   -0.0880 H   0  0  0  0  0  0  0  0  0  0  0  0
    3.0080   -1.6870    0.0800 H   0  0  0  0  0  0  0  0  0  0  0  0
   -1.0200   -2.6990    0.2490 O   0  0  0  0  0  0  0  0  0  0  0  0
   -2.9150   -0.6130   -0.3250 O   0  0  0  0  0  0  0  0  0  0  0  0
   -1.1950    1.0270   -1.3010 H   0  0  0  0  0  0  0  0  0  0  0  0
    0.3050    1.2660    1.3470 H   0  0  0  0  0  0  0  0  0  0  0  0
    1.2180    0.0950   -1.3410 H   0  0  0  0  0  0  0  0  0  0  0  0
    3.0740    1.1340   -0.0760 H   0  0  0  0  0  0  0  0  0  0  0  0
   -0.4580   -3.3990   -0.1200 H   0  0  0  0  0  0  0  0  0  0  0  0
   -3.2450   -1.4770   -0.0300 H   0  0  0  0  0  0  0  0  0  0  0  0
   -0.5900   -1.4790   -1.3640 H   0  0  0  0  0  0  0  0  0  0  0  0
   -1.6540   -0.4710    1.3290 H   0  0  0  0  0  0  0  0  0  0  0  0
    2.6060    0.2290    1.3850 H   0  0  0  0  0  0  0  0  0  0  0  0
  1 22  1  6
  1  5  1  0
  1  2  1  0
  1 14  1  0
  2  3  1  0
  3 18  1  6
  3  4  1  0
  3  9  1  0
  4  8  1  0
  4  6  1  0
  4 17  1  1
  5 15  1  0
  5  6  1  0
  5 23  1  1
  6 16  1  6
  6  7  1  0
  7 11  1  0
  8 12  1  0
  9 10  1  0
  9 19  1  6
  9 24  1  0
 10 13  1  0
 14 20  1  0
 15 21  1  0
M  END
$$$$
