SCONF/G3/struc.xyz
     RDKit          3D

 24 24  0  0  0  0  0  0  0  0999 V2000
   -0.1130   -1.4190   -0.7800 C   0  0  2  0  0  0  0  0  0  0  0  0
    0.4100   -0.2370   -1.3640 O   0  0  0  0  0  0  0  0  0  0  0  0
    0.6200    0.8900   -0.5030 C   0  0  1  0  0  0  0  0  0  0  0  0
   -0.6100    1.2080    0.3680 C   0  0  2  0  0  0  0  0  0  0  0  0
   -1.4390   -1.1620   -0.0460 C   0  0  1  0  0  0  0  0  0  0  0  0
   -1.2480   -0.0510    1.0100 C   0  0  1  0  0  0  0  0  0  0  0  0
   -0.4870   -0.4990    2.1250 O   0  0  0  0  0  0  0  0  0  0  0  0
   -1.6600    1.7940   -0.4230 O   0  0  0  0  0  0  0  0  0  0  0  0
    1.9310    0.7750    0.3290 C   0  0  1  0  0  0  0  0  0  0  0  0
    2.8820   -0.1160   -0.2560 O   0  0  0  0  0  0  0  0  0  0  0  0
    0.1290   -1.1860    1.8030 H   0  0  0  0  0  0  0  0  0  0  0  0
   -1.3360    2.5940   -0.8640 H   0  0  0  0  0  0  0  0  0  0  0  0
    2.9760    0.0890   -1.2010 H   0  0  0  0  0  0  0  0  0  0  0  0
    0.7930   -1.9880    0.1610 O   0  0  0  0  0  0  0  0  0  0  0  0
   -2.4710   -0.8640   -0.9700 O   0  0  0  0  0  0  0  0  0  0  0  0
   -2.2320    0.2460    1.3860 H   0  0  0  0  0  0  0  0  0  0  0  0
   -0.3180    1.8950    1.1740 H   0  0  0  0  0  0  0  0  0  0  0  0
    0.7520    1.7120   -1.2190 H   0  0  0  0  0  0  0  0  0  0  0  0
    2.3630    1.7800    0.4370 H   0  0  0  0  0  0  0  0  0  0  0  0
    1.7030   -1.7500   -0.1120 H   0  0  0  0  0  0  0  0  0  0  0  0
   -2.3940    0.0770   -1.2160 H   0  0  0  0  0  0  0  0  0  0  0  0
   -0.2660   -2.0880   -1.6320 H   0  0  0  0  0  0  0  0  0  0  0  0
   -1.7330   -2.0850    0.4640 H   0  0  0  0  0  0  0  0  0  0  0  0
    1.7460    0.3860    1.3300 H   0  0  0  0  0  0  0  0  0  0  0  0
  1 22  1  6
  1  2  1  0
  1  5  1  0
  1 14  1  0
  2  3  1  0
  3 18  1  6
  3  9  1  0
  3  4  1  0
  4  8  1  0
  4  6  1  0
  4 17  1  1
  5 15  1  0
  5 23  1  1
  5  6  1  0
  6 16  1  1
  6  7  1  0
  7 11  1  0
  8 12  1  0
  9 10  1  0
  9 19  1  1
  9 24  1  0
 10 13  1  0
 14 20  1  0
 15 21  1  0
M  END
$$$$
