-29.79983664
     RDKit          3D

 19 18  0  0  0  0  0  0  0  0999 V2000
    0.2573    0.3831   -0.0035 C   0  0  2  0  0  0  0  0  0  0  0  0
    0.3229    1.0282    0.8833 H   0  0  0  0  0  0  0  0  0  0  0  0
    0.3227    1.0227   -0.8943 H   0  0  0  0  0  0  0  0  0  0  0  0
   -0.9499   -0.3899   -0.0010 N   0  0  0  0  0  0  0  0  0  0  0  0
   -0.8008   -1.3949   -0.0004 H   0  0  0  0  0  0  0  0  0  0  0  0
    1.4438   -0.5784   -0.0009 C   0  0  0  0  0  0  0  0  0  0  0  0
    1.2978   -1.7820   -0.0003 O   0  0  0  0  0  0  0  0  0  0  0  0
   -2.2246    0.0595    0.0005 C   0  0  0  0  0  0  0  0  0  0  0  0
   -3.1662   -0.7033    0.0025 O   0  0  0  0  0  0  0  0  0  0  0  0
    2.6631   -0.0052    0.0007 N   0  0  0  0  0  0  0  0  0  0  0  0
    3.4382   -0.6518    0.0041 H   0  0  0  0  0  0  0  0  0  0  0  0
    2.9579    1.4059    0.0021 C   0  0  1  0  0  0  0  0  0  0  0  0
    2.5526    1.8937    0.8922 H   0  0  0  0  0  0  0  0  0  0  0  0
    4.0358    1.5416   -0.0038 H   0  0  0  0  0  0  0  0  0  0  0  0
    2.5426    1.8969   -0.8814 H   0  0  0  0  0  0  0  0  0  0  0  0
   -2.3766    1.5668   -0.0005 C   0  0  2  0  0  0  0  0  0  0  0  0
   -1.9117    1.9928   -0.8871 H   0  0  0  0  0  0  0  0  0  0  0  0
   -1.9064    1.9949    0.8821 H   0  0  0  0  0  0  0  0  0  0  0  0
   -3.4343    1.8123    0.0023 H   0  0  0  0  0  0  0  0  0  0  0  0
  1  4  1  0
  1  6  1  0
  1  2  1  1
  3  1  1  0
  4  5  1  0
  4  8  1  0
  6  7  2  0
  6 10  1  0
  8  9  2  0
 10 12  1  0
 10 11  1  0
 12 13  1  1
 14 12  1  0
 15 12  1  0
 16  8  1  0
 16 19  1  1
 16 18  1  0
 17 16  1  0
M  END
$$$$
