-38.28498086
     RDKit          3D

 26 26  0  0  1  0  0  0  0  0999 V2000
    0.7336    0.0395    0.0182 N   0  0  0  0  0  0  0  0  0  0  0  0
   -0.4846   -0.0984   -0.7513 C   0  0  2  0  0  0  0  0  0  0  0  0
   -1.7161   -0.3295    0.1484 C   0  0  0  0  0  0  0  0  0  0  0  0
   -2.4885   -1.2443   -0.0557 O   0  0  0  0  0  0  0  0  0  0  0  0
   -0.2180   -1.3741   -1.5590 C   0  0  1  0  0  0  0  0  0  0  0  0
    0.4999   -2.2672   -0.5386 C   0  0  1  0  0  0  0  0  0  0  0  0
    1.0997   -1.2884    0.4898 C   0  0  2  0  0  0  0  0  0  0  0  0
   -0.6790    0.7743   -1.3766 H   0  0  0  0  0  0  0  0  0  0  0  0
   -1.1423   -1.8201   -1.9168 H   0  0  0  0  0  0  0  0  0  0  0  0
    0.4293   -1.1445   -2.4058 H   0  0  0  0  0  0  0  0  0  0  0  0
   -0.2173   -2.9292   -0.0570 H   0  0  0  0  0  0  0  0  0  0  0  0
    1.2696   -2.8755   -1.0090 H   0  0  0  0  0  0  0  0  0  0  0  0
    0.6806   -1.4539    1.4865 H   0  0  0  0  0  0  0  0  0  0  0  0
    2.1874   -1.3407    0.5579 H   0  0  0  0  0  0  0  0  0  0  0  0
   -1.9297    0.5183    1.1750 N   0  0  0  0  0  0  0  0  0  0  0  0
   -2.7765    0.3106    1.6871 H   0  0  0  0  0  0  0  0  0  0  0  0
   -1.2447    1.7382    1.5268 C   0  0  1  0  0  0  0  0  0  0  0  0
   -0.1727    1.5723    1.6229 H   0  0  0  0  0  0  0  0  0  0  0  0
   -1.4215    2.5206    0.7823 H   0  0  0  0  0  0  0  0  0  0  0  0
   -1.6263    2.0872    2.4834 H   0  0  0  0  0  0  0  0  0  0  0  0
    1.6949    0.9895   -0.1176 C   0  0  0  0  0  0  0  0  0  0  0  0
    2.7693    0.8760    0.4392 O   0  0  0  0  0  0  0  0  0  0  0  0
    1.3560    2.2016   -0.9615 C   0  0  2  0  0  0  0  0  0  0  0  0
    1.2469    1.9071   -2.0038 H   0  0  0  0  0  0  0  0  0  0  0  0
    2.1815    2.9038   -0.8832 H   0  0  0  0  0  0  0  0  0  0  0  0
    0.4430    2.6877   -0.6310 H   0  0  0  0  0  0  0  0  0  0  0  0
  1  7  1  0
  2  8  1  6
  2  1  1  0
  2  3  1  0
  3 15  1  0
  4  3  2  0
  5  2  1  0
  5  6  1  0
  6 11  1  1
  6  7  1  0
  7 14  1  1
  7 13  1  0
  5  9  1  6
 10  5  1  0
 12  6  1  0
 15 17  1  0
 15 16  1  0
 17 18  1  1
 17 20  1  0
 19 17  1  0
 21  1  1  0
 21 22  2  0
 23 25  1  6
 23 26  1  0
 23 21  1  0
 24 23  1  0
M  END
$$$$
