Coordinates from ORCA-job xak
     RDKit          3D

 35 34  0  0  0  0  0  0  0  0999 V2000
    2.4750    0.1670    0.4240 N   0  0  0  0  0  0  0  0  0  0  0  0
    2.7910    1.0600    0.7800 H   0  0  0  0  0  0  0  0  0  0  0  0
    1.2500    0.2310   -0.3370 C   0  0  1  0  0  0  0  0  0  0  0  0
    1.4860    0.0650   -1.3950 H   0  0  0  0  0  0  0  0  0  0  0  0
    0.2350   -0.8360    0.0910 C   0  0  1  0  0  0  0  0  0  0  0  0
    0.7400    1.6670   -0.1960 C   0  0  0  0  0  0  0  0  0  0  0  0
    0.7880   -1.6680    0.5250 H   0  0  0  0  0  0  0  0  0  0  0  0
   -0.4140   -0.4250    0.8670 H   0  0  0  0  0  0  0  0  0  0  0  0
   -0.5780   -1.3390   -1.0950 C   0  0  2  0  0  0  0  0  0  0  0  0
    1.4910    2.5670    0.1850 O   0  0  0  0  0  0  0  0  0  0  0  0
    0.0820   -1.9270   -1.7350 H   0  0  0  0  0  0  0  0  0  0  0  0
   -0.9420   -0.5090   -1.6960 H   0  0  0  0  0  0  0  0  0  0  0  0
   -1.7680   -2.2130   -0.7030 C   0  0  2  0  0  0  0  0  0  0  0  0
   -1.4210   -3.2040   -0.4100 H   0  0  0  0  0  0  0  0  0  0  0  0
   -2.4220   -2.3360   -1.5660 H   0  0  0  0  0  0  0  0  0  0  0  0
   -2.5740   -1.7310    0.4090 N   0  0  0  0  0  0  0  0  0  0  0  0
   -2.3000   -2.0380    1.3270 H   0  0  0  0  0  0  0  0  0  0  0  0
   -3.1970   -0.5150    0.3760 C   0  0  0  0  0  0  0  0  0  0  0  0
   -3.0980    0.2640   -0.6500 N   0  0  0  0  0  0  0  0  0  0  0  0
   -3.8800   -0.2390    1.5590 N   0  0  0  0  0  0  0  0  0  0  0  0
   -3.7430    1.0430   -0.5450 H   0  0  0  0  0  0  0  0  0  0  0  0
   -4.4690    0.5760    1.5070 H   0  0  0  0  0  0  0  0  0  0  0  0
   -4.3680   -1.0320    1.9470 H   0  0  0  0  0  0  0  0  0  0  0  0
   -0.5430    1.8910   -0.5330 N   0  0  0  0  0  0  0  0  0  0  0  0
   -1.0850    3.2290   -0.4170 C   0  0  2  0  0  0  0  0  0  0  0  0
   -1.2010    1.1340   -0.6890 H   0  0  0  0  0  0  0  0  0  0  0  0
   -0.4290    3.9390   -0.9120 H   0  0  0  0  0  0  0  0  0  0  0  0
   -1.1840    3.5350    0.6250 H   0  0  0  0  0  0  0  0  0  0  0  0
   -2.0610    3.2470   -0.8930 H   0  0  0  0  0  0  0  0  0  0  0  0
    3.3560   -0.8430    0.2060 C   0  0  0  0  0  0  0  0  0  0  0  0
    4.6900   -0.7020    0.9000 C   0  0  1  0  0  0  0  0  0  0  0  0
    3.0820   -1.8120   -0.4970 O   0  0  0  0  0  0  0  0  0  0  0  0
    4.7270    0.1460    1.5790 H   0  0  0  0  0  0  0  0  0  0  0  0
    4.8950   -1.6170    1.4490 H   0  0  0  0  0  0  0  0  0  0  0  0
    5.4630   -0.5910    0.1430 H   0  0  0  0  0  0  0  0  0  0  0  0
  1  3  1  0
  1 30  1  0
  1  2  1  0
  3  4  1  6
  3  6  1  0
  3  5  1  0
  5  9  1  0
  5  7  1  1
  5  8  1  0
  6 24  1  0
  6 10  1  0
  9 11  1  6
  9 12  1  0
  9 13  1  0
 13 15  1  6
 13 14  1  0
 13 16  1  0
 16 18  1  0
 16 17  1  0
 18 19  1  0
 18 20  1  0
 19 21  1  0
 20 22  1  0
 20 23  1  0
 24 26  1  0
 24 25  1  0
 25 27  1  6
 25 29  1  0
 25 28  1  0
 30 32  1  0
 30 31  1  0
 31 35  1  6
 31 34  1  0
 31 33  1  0
M  END
$$$$
