 energy: -45.795771666205 gnorm: 0.000020101607 xtb: 6.5.1 (9af7eec)
     RDKit          3D

 29 28  0  0  0  0  0  0  0  0999 V2000
   -0.8064    0.2962    0.4061 N   0  0  0  0  0  0  0  0  0  0  0  0
    0.1553    1.3285    0.1009 C   0  0  2  0  0  0  0  0  0  0  0  0
    0.4441    1.2398   -1.4032 C   0  0  0  0  0  0  0  0  0  0  0  0
    0.2148    0.2110   -2.0167 O   0  0  0  0  0  0  0  0  0  0  0  0
    1.4283    1.1161    0.9455 C   0  0  1  0  0  0  0  0  0  0  0  0
    2.4279    2.2723    0.8476 C   0  0  2  0  0  0  0  0  0  0  0  0
    1.7164    3.5993    1.0374 C   0  0  0  0  0  0  0  0  0  0  0  0
    1.4464    4.3346    0.1033 O   0  0  0  0  0  0  0  0  0  0  0  0
   -0.9227   -0.3959   -0.3243 H   0  0  0  0  0  0  0  0  0  0  0  0
   -0.2855    2.3014    0.3495 H   0  0  0  0  0  0  0  0  0  0  0  0
    1.0981    1.0003    1.9798 H   0  0  0  0  0  0  0  0  0  0  0  0
    1.9086    0.1862    0.6342 H   0  0  0  0  0  0  0  0  0  0  0  0
    2.9071    2.2745   -0.1317 H   0  0  0  0  0  0  0  0  0  0  0  0
    3.1973    2.1519    1.6115 H   0  0  0  0  0  0  0  0  0  0  0  0
   -1.4902    0.2584    1.5657 C   0  0  0  0  0  0  0  0  0  0  0  0
   -1.3211    1.0808    2.4467 O   0  0  0  0  0  0  0  0  0  0  0  0
    0.9530    2.3506   -1.9443 N   0  0  0  0  0  0  0  0  0  0  0  0
    1.0940    3.1829   -1.3753 H   0  0  0  0  0  0  0  0  0  0  0  0
    1.2921    2.4396   -3.3442 C   0  0  1  0  0  0  0  0  0  0  0  0
    1.0793    1.4766   -3.8059 H   0  0  0  0  0  0  0  0  0  0  0  0
    0.6988    3.2150   -3.8310 H   0  0  0  0  0  0  0  0  0  0  0  0
    2.3507    2.6759   -3.4651 H   0  0  0  0  0  0  0  0  0  0  0  0
   -2.4697   -0.8906    1.6621 C   0  0  2  0  0  0  0  0  0  0  0  0
   -1.9429   -1.8373    1.5677 H   0  0  0  0  0  0  0  0  0  0  0  0
   -3.2035   -0.8196    0.8627 H   0  0  0  0  0  0  0  0  0  0  0  0
   -2.9767   -0.8532    2.6218 H   0  0  0  0  0  0  0  0  0  0  0  0
    1.3986    3.8996    2.3074 N   0  0  0  0  0  0  0  0  0  0  0  0
    1.4832    3.2191    3.0420 H   0  0  0  0  0  0  0  0  0  0  0  0
    0.8310    4.7133    2.4837 H   0  0  0  0  0  0  0  0  0  0  0  0
  1  9  1  0
  1  2  1  0
  1 15  1  0
  2  5  1  0
  2  3  1  0
  2 10  1  6
  3  4  1  0
  3 17  1  0
  5 11  1  1
  5 12  1  0
  5  6  1  0
  6 13  1  6
  6 14  1  0
  6  7  1  0
  7  8  1  0
  7 27  1  0
 15 23  1  0
 15 16  1  0
 17 19  1  0
 17 18  1  0
 19 21  1  6
 19 22  1  0
 19 20  1  0
 23 24  1  6
 23 26  1  0
 23 25  1  0
 27 29  1  0
 27 28  1  0
M  END
$$$$
