relax
     RDKit          3D

 16 15  0  0  1  0  0  0  0  0999 V2000
   -0.5731    2.2058   -0.4116 N   0  0  0  0  0  0  0  0  0  0  0  0
   -0.2185    0.8392   -0.0089 C   0  0  2  0  0  0  0  0  0  0  0  0
   -0.5790    0.6751    1.3958 C   0  0  0  0  0  0  0  0  0  0  0  0
   -1.0753    1.6609    2.0193 O   0  0  0  0  0  0  0  0  0  0  0  0
   -0.4334   -0.4801    2.1515 O   0  0  0  0  0  0  0  0  0  0  0  0
    1.2345    0.6387   -0.3288 C   0  0  2  0  0  0  0  0  0  0  0  0
    1.7881   -0.6651   -0.0178 C   0  0  0  0  0  0  0  0  0  0  0  0
    3.0311   -0.8375   -0.1940 O   0  0  0  0  0  0  0  0  0  0  0  0
    1.0709   -1.7243    0.4500 O   0  0  0  0  0  0  0  0  0  0  0  0
   -0.7921    0.0920   -0.5974 H   0  0  0  0  0  0  0  0  0  0  0  0
    1.7936    1.4175    0.2640 H   0  0  0  0  0  0  0  0  0  0  0  0
    1.3754    0.9557   -1.3912 H   0  0  0  0  0  0  0  0  0  0  0  0
   -0.1647    2.4072   -1.3292 H   0  0  0  0  0  0  0  0  0  0  0  0
   -0.2531    2.8414    0.3462 H   0  0  0  0  0  0  0  0  0  0  0  0
   -0.1487   -0.3704    3.1096 H   0  0  0  0  0  0  0  0  0  0  0  0
    1.4533   -2.6143    0.6845 H   0  0  0  0  0  0  0  0  0  0  0  0
  1 14  1  0
  1  2  1  0
  1 13  1  0
  2 10  1  6
  2  3  1  0
  3  5  1  0
  3  4  2  0
  5 15  1  0
  6 11  1  1
  6 12  1  0
  6  2  1  0
  7  6  1  0
  8  7  2  0
  9  7  1  0
  9 16  1  0
M  END
$$$$
