-32.96042792
     RDKit          3D

 22 21  0  0  1  0  0  0  0  0999 V2000
   -0.7620    0.2181   -0.2002 N   0  0  0  0  0  0  0  0  0  0  0  0
   -0.4769    1.0622   -0.6778 H   0  0  0  0  0  0  0  0  0  0  0  0
    0.2426   -0.4333    0.6166 C   0  0  1  0  0  0  0  0  0  0  0  0
   -0.0993   -0.4721    1.6605 H   0  0  0  0  0  0  0  0  0  0  0  0
    0.5694   -1.8675    0.1751 C   0  0  1  0  0  0  0  0  0  0  0  0
    1.5289    0.3986    0.6560 C   0  0  0  0  0  0  0  0  0  0  0  0
   -0.2726   -2.5266    0.3631 H   0  0  0  0  0  0  0  0  0  0  0  0
    0.8167   -1.9172   -0.8806 H   0  0  0  0  0  0  0  0  0  0  0  0
    1.4190   -2.2274    0.7507 H   0  0  0  0  0  0  0  0  0  0  0  0
    2.0303    0.7090    1.7175 O   0  0  0  0  0  0  0  0  0  0  0  0
   -2.1112    0.0457   -0.2014 C   0  0  0  0  0  0  0  0  0  0  0  0
   -2.6662   -1.0919    0.6185 C   0  0  2  0  0  0  0  0  0  0  0  0
   -2.2140   -1.1259    1.6058 H   0  0  0  0  0  0  0  0  0  0  0  0
   -2.4826   -2.0357    0.1100 H   0  0  0  0  0  0  0  0  0  0  0  0
   -3.7399   -0.9548    0.7121 H   0  0  0  0  0  0  0  0  0  0  0  0
   -2.8072    0.7782   -0.8730 O   0  0  0  0  0  0  0  0  0  0  0  0
    2.0978    0.7887   -0.5044 N   0  0  0  0  0  0  0  0  0  0  0  0
    2.9522    1.3133   -0.3622 H   0  0  0  0  0  0  0  0  0  0  0  0
    1.8169    0.4469   -1.8786 C   0  0  1  0  0  0  0  0  0  0  0  0
    2.5811   -0.2330   -2.2667 H   0  0  0  0  0  0  0  0  0  0  0  0
    0.8451   -0.0258   -1.9772 H   0  0  0  0  0  0  0  0  0  0  0  0
    1.8251    1.3538   -2.4866 H   0  0  0  0  0  0  0  0  0  0  0  0
  1  3  1  0
  2  1  1  0
  3  6  1  0
  3  4  1  1
  5  7  1  6
  5  3  1  0
  5  9  1  0
  6 10  2  0
  8  5  1  0
 11  1  1  0
 11 12  1  0
 12 15  1  1
 12 13  1  0
 14 12  1  0
 16 11  2  0
 17 18  1  0
 17  6  1  0
 19 17  1  0
 19 20  1  6
 21 19  1  0
 22 19  1  0
M  END
$$$$
