-32.96042467
     RDKit          3D

 22 21  0  0  1  0  0  0  0  0999 V2000
   -0.7632    0.2144   -0.2035 N   0  0  0  0  0  0  0  0  0  0  0  0
   -0.4682    1.0651   -0.6622 H   0  0  0  0  0  0  0  0  0  0  0  0
    0.2451   -0.5106    0.5422 C   0  0  1  0  0  0  0  0  0  0  0  0
   -0.1022   -0.6597    1.5735 H   0  0  0  0  0  0  0  0  0  0  0  0
    0.5764   -1.8918   -0.0426 C   0  0  1  0  0  0  0  0  0  0  0  0
    1.5282    0.3162    0.6767 C   0  0  0  0  0  0  0  0  0  0  0  0
    1.3842   -2.3336    0.5358 H   0  0  0  0  0  0  0  0  0  0  0  0
   -0.2871   -2.5473    0.0196 H   0  0  0  0  0  0  0  0  0  0  0  0
    0.8861   -1.8290   -1.0811 H   0  0  0  0  0  0  0  0  0  0  0  0
    2.0233    0.5105    1.7683 O   0  0  0  0  0  0  0  0  0  0  0  0
   -2.1153    0.0749   -0.1741 C   0  0  0  0  0  0  0  0  0  0  0  0
   -2.6757   -1.0816    0.6156 C   0  0  2  0  0  0  0  0  0  0  0  0
   -2.4790   -2.0169    0.0971 H   0  0  0  0  0  0  0  0  0  0  0  0
   -3.7508   -0.9508    0.6992 H   0  0  0  0  0  0  0  0  0  0  0  0
   -2.2359   -1.1289    1.6083 H   0  0  0  0  0  0  0  0  0  0  0  0
   -2.8109    0.8533   -0.7926 O   0  0  0  0  0  0  0  0  0  0  0  0
    2.1064    0.8277   -0.4305 N   0  0  0  0  0  0  0  0  0  0  0  0
    2.9528    1.3440   -0.2243 H   0  0  0  0  0  0  0  0  0  0  0  0
    1.8251    0.6632   -1.8370 C   0  0  1  0  0  0  0  0  0  0  0  0
    0.8980    0.1224   -1.9954 H   0  0  0  0  0  0  0  0  0  0  0  0
    1.7427    1.6433   -2.3130 H   0  0  0  0  0  0  0  0  0  0  0  0
    2.6379    0.1148   -2.3216 H   0  0  0  0  0  0  0  0  0  0  0  0
  1 11  1  0
  1  3  1  0
  2  1  1  0
  3  6  1  0
  3  4  1  1
  5  8  1  6
  5  7  1  0
  5  3  1  0
  6 10  2  0
  9  5  1  0
 11 12  1  0
 12 14  1  1
 12 15  1  0
 13 12  1  0
 16 11  2  0
 17 18  1  0
 17  6  1  0
 19 17  1  0
 19 20  1  1
 21 19  1  0
 22 19  1  0
M  END
$$$$
