-32.95897356
     RDKit          3D

 22 21  0  0  1  0  0  0  0  0999 V2000
   -1.0616   -0.4958    0.6860 N   0  0  0  0  0  0  0  0  0  0  0  0
   -1.2213   -0.6641    1.6701 H   0  0  0  0  0  0  0  0  0  0  0  0
    0.2795   -0.7887    0.2245 C   0  0  1  0  0  0  0  0  0  0  0  0
    0.7115   -1.4410    0.9910 H   0  0  0  0  0  0  0  0  0  0  0  0
    0.3034   -1.5386   -1.1148 C   0  0  1  0  0  0  0  0  0  0  0  0
    1.1362    0.4850    0.1329 C   0  0  0  0  0  0  0  0  0  0  0  0
    1.2450   -2.0678   -1.2317 H   0  0  0  0  0  0  0  0  0  0  0  0
   -0.5055   -2.2648   -1.1351 H   0  0  0  0  0  0  0  0  0  0  0  0
    0.1871   -0.8571   -1.9515 H   0  0  0  0  0  0  0  0  0  0  0  0
    0.6511    1.5908    0.0201 O   0  0  0  0  0  0  0  0  0  0  0  0
   -2.0960    0.2033    0.1364 C   0  0  0  0  0  0  0  0  0  0  0  0
   -1.9928    0.6434   -1.2999 C   0  0  2  0  0  0  0  0  0  0  0  0
   -2.8385    1.2911   -1.5142 H   0  0  0  0  0  0  0  0  0  0  0  0
   -2.0339   -0.2172   -1.9628 H   0  0  0  0  0  0  0  0  0  0  0  0
   -1.0697    1.1923   -1.4564 H   0  0  0  0  0  0  0  0  0  0  0  0
   -3.0829    0.4027    0.8141 O   0  0  0  0  0  0  0  0  0  0  0  0
    2.4785    0.3340    0.1910 N   0  0  0  0  0  0  0  0  0  0  0  0
    2.9824    1.2038    0.0769 H   0  0  0  0  0  0  0  0  0  0  0  0
    3.2869   -0.8566    0.2614 C   0  0  1  0  0  0  0  0  0  0  0  0
    2.7729   -1.6452    0.8070 H   0  0  0  0  0  0  0  0  0  0  0  0
    3.5426   -1.2278   -0.7360 H   0  0  0  0  0  0  0  0  0  0  0  0
    4.2118   -0.6248    0.7883 H   0  0  0  0  0  0  0  0  0  0  0  0
  1  2  1  0
  3  1  1  0
  3  4  1  1
  5  3  1  0
  6 17  1  0
  6  3  1  0
  5  7  1  6
  8  5  1  0
  9  5  1  0
 10  6  2  0
 11  1  1  0
 11 16  2  0
 12 11  1  0
 12 13  1  6
 14 12  1  0
 15 12  1  0
 17 19  1  0
 18 17  1  0
 19 22  1  1
 19 20  1  0
 21 19  1  0
M  END
$$$$
