 energy: -51.738739647611 gnorm: 0.000030736494 xtb: 6.5.1 (9af7eec)
     RDKit          3D

 35 34  0  0  0  0  0  0  0  0999 V2000
   -1.7747   -1.2892   -0.2693 N   0  0  0  0  0  0  0  0  0  0  0  0
   -1.8662   -0.9939    0.6958 H   0  0  0  0  0  0  0  0  0  0  0  0
   -0.8397   -0.5796   -1.1121 C   0  0  1  0  0  0  0  0  0  0  0  0
   -0.8192   -1.1378   -2.0585 H   0  0  0  0  0  0  0  0  0  0  0  0
   -1.2722    0.8741   -1.4330 C   0  0  1  0  0  0  0  0  0  0  0  0
    0.5756   -0.6461   -0.5293 C   0  0  0  0  0  0  0  0  0  0  0  0
   -0.3682    1.4814   -1.5065 H   0  0  0  0  0  0  0  0  0  0  0  0
   -1.7495    0.8632   -2.4134 H   0  0  0  0  0  0  0  0  0  0  0  0
   -2.2528    1.5270   -0.4511 C   0  0  2  0  0  0  0  0  0  0  0  0
    1.2396    0.3498   -0.2791 O   0  0  0  0  0  0  0  0  0  0  0  0
   -2.9654    0.7804   -0.0973 H   0  0  0  0  0  0  0  0  0  0  0  0
   -2.8258    2.2826   -0.9928 H   0  0  0  0  0  0  0  0  0  0  0  0
   -1.5997    2.2472    0.7421 C   0  0  2  0  0  0  0  0  0  0  0  0
   -2.3889    2.5916    1.4205 H   0  0  0  0  0  0  0  0  0  0  0  0
   -1.0657    3.1285    0.3792 H   0  0  0  0  0  0  0  0  0  0  0  0
   -0.6432    1.4747    1.5007 N   0  0  0  0  0  0  0  0  0  0  0  0
    0.2596    1.3954    1.0444 H   0  0  0  0  0  0  0  0  0  0  0  0
   -1.0053    0.3619    2.2153 C   0  0  0  0  0  0  0  0  0  0  0  0
   -2.1760   -0.0152    2.5640 N   0  0  0  0  0  0  0  0  0  0  0  0
    0.0539   -0.4626    2.5474 N   0  0  0  0  0  0  0  0  0  0  0  0
   -2.9198    0.6087    2.2730 H   0  0  0  0  0  0  0  0  0  0  0  0
   -0.1505   -1.0815    3.3164 H   0  0  0  0  0  0  0  0  0  0  0  0
    0.9572   -0.0184    2.5919 H   0  0  0  0  0  0  0  0  0  0  0  0
    1.0956   -1.8661   -0.3283 N   0  0  0  0  0  0  0  0  0  0  0  0
    0.5096   -3.1650   -0.5459 C   0  0  2  0  0  0  0  0  0  0  0  0
    2.0135   -1.8554    0.0962 H   0  0  0  0  0  0  0  0  0  0  0  0
   -0.1792   -3.1479   -1.3879 H   0  0  0  0  0  0  0  0  0  0  0  0
   -0.0326   -3.5062    0.3404 H   0  0  0  0  0  0  0  0  0  0  0  0
    1.3047   -3.8763   -0.7650 H   0  0  0  0  0  0  0  0  0  0  0  0
   -2.5735   -2.2734   -0.7376 C   0  0  0  0  0  0  0  0  0  0  0  0
   -3.5589   -2.7991    0.2804 C   0  0  1  0  0  0  0  0  0  0  0  0
   -2.4924   -2.6978   -1.8745 O   0  0  0  0  0  0  0  0  0  0  0  0
   -3.3072   -2.4795    1.2876 H   0  0  0  0  0  0  0  0  0  0  0  0
   -4.5500   -2.4283    0.0251 H   0  0  0  0  0  0  0  0  0  0  0  0
   -3.5886   -3.8843    0.2254 H   0  0  0  0  0  0  0  0  0  0  0  0
  1  3  1  0
  1 30  1  0
  1  2  1  0
  3  4  1  6
  3  6  1  0
  3  5  1  0
  5  9  1  0
  5  7  1  6
  5  8  1  0
  6 24  1  0
  6 10  1  0
  9 11  1  1
  9 12  1  0
  9 13  1  0
 13 15  1  6
 13 14  1  0
 13 16  1  0
 16 18  1  0
 16 17  1  0
 18 19  1  0
 18 20  1  0
 19 21  1  0
 20 22  1  0
 20 23  1  0
 24 26  1  0
 24 25  1  0
 25 27  1  6
 25 29  1  0
 25 28  1  0
 30 32  1  0
 30 31  1  0
 31 35  1  1
 31 34  1  0
 31 33  1  0
M  END
$$$$
