 energy: -51.736517638119 gnorm: 0.000015248390 xtb: 6.5.1 (9af7eec)
     RDKit          3D

 35 34  0  0  0  0  0  0  0  0999 V2000
   -1.4995   -2.1088   -1.6236 N   0  0  0  0  0  0  0  0  0  0  0  0
   -2.1600   -2.4009   -0.9131 H   0  0  0  0  0  0  0  0  0  0  0  0
   -0.9359   -0.7989   -1.4025 C   0  0  1  0  0  0  0  0  0  0  0  0
    0.1604   -0.8783   -1.4462 H   0  0  0  0  0  0  0  0  0  0  0  0
   -1.3676    0.1849   -2.5080 C   0  0  1  0  0  0  0  0  0  0  0  0
   -1.3388   -0.3709    0.0120 C   0  0  0  0  0  0  0  0  0  0  0  0
   -0.9465    1.1713   -2.3065 H   0  0  0  0  0  0  0  0  0  0  0  0
   -0.9313   -0.1912   -3.4349 H   0  0  0  0  0  0  0  0  0  0  0  0
   -2.8811    0.3055   -2.6883 C   0  0  2  0  0  0  0  0  0  0  0  0
   -2.1396   -1.0156    0.6654 O   0  0  0  0  0  0  0  0  0  0  0  0
   -3.3354   -0.6844   -2.6401 H   0  0  0  0  0  0  0  0  0  0  0  0
   -3.0799    0.7133   -3.6826 H   0  0  0  0  0  0  0  0  0  0  0  0
   -3.5475    1.2081   -1.6502 C   0  0  2  0  0  0  0  0  0  0  0  0
   -3.3889    0.8029   -0.6499 H   0  0  0  0  0  0  0  0  0  0  0  0
   -4.6323    1.2335   -1.8355 H   0  0  0  0  0  0  0  0  0  0  0  0
   -2.9707    2.5328   -1.7026 N   0  0  0  0  0  0  0  0  0  0  0  0
   -2.9929    2.9574   -2.6188 H   0  0  0  0  0  0  0  0  0  0  0  0
   -3.0075    3.4190   -0.6444 C   0  0  0  0  0  0  0  0  0  0  0  0
   -3.3287    3.1969    0.5627 N   0  0  0  0  0  0  0  0  0  0  0  0
   -2.6177    4.6989   -0.9930 N   0  0  0  0  0  0  0  0  0  0  0  0
   -3.7204    2.2801    0.7416 H   0  0  0  0  0  0  0  0  0  0  0  0
   -2.4633    5.2886   -0.1906 H   0  0  0  0  0  0  0  0  0  0  0  0
   -1.9181    4.7822   -1.7136 H   0  0  0  0  0  0  0  0  0  0  0  0
   -0.7114    0.7240    0.4656 N   0  0  0  0  0  0  0  0  0  0  0  0
   -0.9527    1.2838    1.7764 C   0  0  2  0  0  0  0  0  0  0  0  0
   -0.0905    1.2270   -0.1473 H   0  0  0  0  0  0  0  0  0  0  0  0
   -1.5522    0.5667    2.3340 H   0  0  0  0  0  0  0  0  0  0  0  0
   -1.5004    2.2267    1.7011 H   0  0  0  0  0  0  0  0  0  0  0  0
   -0.0064    1.4472    2.2922 H   0  0  0  0  0  0  0  0  0  0  0  0
   -1.0132   -2.9653   -2.5470 C   0  0  0  0  0  0  0  0  0  0  0  0
   -1.6831   -4.3228   -2.5270 C   0  0  1  0  0  0  0  0  0  0  0  0
   -0.1324   -2.6551   -3.3226 O   0  0  0  0  0  0  0  0  0  0  0  0
   -2.7576   -4.2131   -2.6531 H   0  0  0  0  0  0  0  0  0  0  0  0
   -1.2842   -4.9331   -3.3316 H   0  0  0  0  0  0  0  0  0  0  0  0
   -1.4927   -4.8136   -1.5753 H   0  0  0  0  0  0  0  0  0  0  0  0
  1  3  1  0
  1 30  1  0
  1  2  1  0
  3  4  1  1
  3  6  1  0
  3  5  1  0
  5  9  1  0
  5  7  1  1
  5  8  1  0
  6 24  1  0
  6 10  1  0
  9 11  1  6
  9 12  1  0
  9 13  1  0
 13 15  1  6
 13 14  1  0
 13 16  1  0
 16 18  1  0
 16 17  1  0
 18 19  1  0
 18 20  1  0
 19 21  1  0
 20 22  1  0
 20 23  1  0
 24 26  1  0
 24 25  1  0
 25 27  1  1
 25 29  1  0
 25 28  1  0
 30 32  1  0
 30 31  1  0
 31 35  1  1
 31 34  1  0
 31 33  1  0
M  END
$$$$
