 energy: -51.738228032979 gnorm: 0.000044187592 xtb: 6.5.1 (9af7eec)
     RDKit          3D

 35 34  0  0  0  0  0  0  0  0999 V2000
   -1.7676   -0.6652    0.5361 N   0  0  0  0  0  0  0  0  0  0  0  0
   -1.5468   -0.3654    1.4781 H   0  0  0  0  0  0  0  0  0  0  0  0
   -0.6647   -0.5288   -0.3862 C   0  0  1  0  0  0  0  0  0  0  0  0
   -0.7220   -1.3294   -1.1286 H   0  0  0  0  0  0  0  0  0  0  0  0
   -0.6911    0.8420   -1.0900 C   0  0  1  0  0  0  0  0  0  0  0  0
    0.6257   -0.6360    0.4319 C   0  0  0  0  0  0  0  0  0  0  0  0
   -0.7735    1.6100   -0.3174 H   0  0  0  0  0  0  0  0  0  0  0  0
    0.2567    0.9936   -1.6112 H   0  0  0  0  0  0  0  0  0  0  0  0
   -1.8475    0.9952   -2.0810 C   0  0  2  0  0  0  0  0  0  0  0  0
    0.6469   -0.3979    1.6230 O   0  0  0  0  0  0  0  0  0  0  0  0
   -1.9780    2.0575   -2.2977 H   0  0  0  0  0  0  0  0  0  0  0  0
   -2.7696    0.6317   -1.6268 H   0  0  0  0  0  0  0  0  0  0  0  0
   -1.6209    0.2720   -3.4081 C   0  0  2  0  0  0  0  0  0  0  0  0
   -0.6465    0.5740   -3.8132 H   0  0  0  0  0  0  0  0  0  0  0  0
   -2.3906    0.5948   -4.1259 H   0  0  0  0  0  0  0  0  0  0  0  0
   -1.6397   -1.1650   -3.2372 N   0  0  0  0  0  0  0  0  0  0  0  0
   -2.3073   -1.4838   -2.5369 H   0  0  0  0  0  0  0  0  0  0  0  0
   -1.4833   -2.0530   -4.2807 C   0  0  0  0  0  0  0  0  0  0  0  0
   -1.7646   -3.2915   -4.2339 N   0  0  0  0  0  0  0  0  0  0  0  0
   -0.9642   -1.5465   -5.4595 N   0  0  0  0  0  0  0  0  0  0  0  0
   -2.2282   -3.5734   -3.3763 H   0  0  0  0  0  0  0  0  0  0  0  0
   -0.7176   -2.2877   -6.0981 H   0  0  0  0  0  0  0  0  0  0  0  0
   -0.2603   -0.8306   -5.3745 H   0  0  0  0  0  0  0  0  0  0  0  0
    1.7074   -0.9785   -0.2887 N   0  0  0  0  0  0  0  0  0  0  0  0
    3.0239   -1.1076    0.2891 C   0  0  2  0  0  0  0  0  0  0  0  0
    1.5977   -1.2084   -1.2638 H   0  0  0  0  0  0  0  0  0  0  0  0
    3.3891   -2.1314    0.1940 H   0  0  0  0  0  0  0  0  0  0  0  0
    2.9444   -0.8490    1.3434 H   0  0  0  0  0  0  0  0  0  0  0  0
    3.7256   -0.4293   -0.1991 H   0  0  0  0  0  0  0  0  0  0  0  0
   -2.8843   -1.3765    0.2905 C   0  0  0  0  0  0  0  0  0  0  0  0
   -3.8063   -1.4960    1.4822 C   0  0  1  0  0  0  0  0  0  0  0  0
   -3.1375   -1.8563   -0.8001 O   0  0  0  0  0  0  0  0  0  0  0  0
   -3.3092   -2.0464    2.2779 H   0  0  0  0  0  0  0  0  0  0  0  0
   -4.0698   -0.5085    1.8538 H   0  0  0  0  0  0  0  0  0  0  0  0
   -4.7080   -2.0257    1.1889 H   0  0  0  0  0  0  0  0  0  0  0  0
  1  3  1  0
  1 30  1  0
  1  2  1  0
  3  4  1  6
  3  6  1  0
  3  5  1  0
  5  9  1  0
  5  7  1  1
  5  8  1  0
  6 24  1  0
  6 10  1  0
  9 11  1  6
  9 12  1  0
  9 13  1  0
 13 15  1  6
 13 14  1  0
 13 16  1  0
 16 18  1  0
 16 17  1  0
 18 19  1  0
 18 20  1  0
 19 21  1  0
 20 22  1  0
 20 23  1  0
 24 26  1  0
 24 25  1  0
 25 27  1  1
 25 29  1  0
 25 28  1  0
 30 32  1  0
 30 31  1  0
 31 35  1  6
 31 34  1  0
 31 33  1  0
M  END
$$$$
