 energy: -51.737872312137 gnorm: 0.000038240929 xtb: 6.5.1 (9af7eec)
     RDKit          3D

 35 34  0  0  0  0  0  0  0  0999 V2000
   -1.2782   -1.5661   -2.0442 N   0  0  0  0  0  0  0  0  0  0  0  0
   -1.6942   -2.1940   -1.3632 H   0  0  0  0  0  0  0  0  0  0  0  0
   -0.7604   -0.3562   -1.4477 C   0  0  1  0  0  0  0  0  0  0  0  0
    0.3222   -0.2906   -1.6301 H   0  0  0  0  0  0  0  0  0  0  0  0
   -1.4278    0.9034   -2.0276 C   0  0  1  0  0  0  0  0  0  0  0  0
   -1.0116   -0.4843    0.0591 C   0  0  0  0  0  0  0  0  0  0  0  0
   -1.0186    1.7950   -1.5495 H   0  0  0  0  0  0  0  0  0  0  0  0
   -1.1594    0.9449   -3.0840 H   0  0  0  0  0  0  0  0  0  0  0  0
   -2.9495    0.8813   -1.8922 C   0  0  2  0  0  0  0  0  0  0  0  0
   -1.6618   -1.4032    0.5191 O   0  0  0  0  0  0  0  0  0  0  0  0
   -3.2509    1.1824   -0.8872 H   0  0  0  0  0  0  0  0  0  0  0  0
   -3.3135   -0.1359   -2.0558 H   0  0  0  0  0  0  0  0  0  0  0  0
   -3.6148    1.8021   -2.9261 C   0  0  2  0  0  0  0  0  0  0  0  0
   -3.2755    2.8305   -2.7768 H   0  0  0  0  0  0  0  0  0  0  0  0
   -4.7020    1.7771   -2.7846 H   0  0  0  0  0  0  0  0  0  0  0  0
   -3.3054    1.4143   -4.2792 N   0  0  0  0  0  0  0  0  0  0  0  0
   -3.3765    0.4207   -4.4491 H   0  0  0  0  0  0  0  0  0  0  0  0
   -2.3179    2.0379   -5.0322 C   0  0  2  0  0  0  0  0  0  0  0  0
   -2.0058    3.2687   -5.0184 N   0  0  0  0  0  0  0  0  0  0  0  0
   -1.7313    1.2040   -5.9580 N   0  0  0  0  0  0  0  0  0  0  0  0
   -2.5686    3.8436   -4.4012 H   0  0  0  0  0  0  0  0  0  0  0  0
   -0.9989    1.6678   -6.4738 H   0  0  0  0  0  0  0  0  0  0  0  0
   -1.4649    0.2870   -5.6208 H   0  0  0  0  0  0  0  0  0  0  0  0
   -0.4586    0.4871    0.8022 N   0  0  0  0  0  0  0  0  0  0  0  0
   -0.6039    0.5525    2.2367 C   0  0  2  0  0  0  0  0  0  0  0  0
    0.0837    1.2081    0.3538 H   0  0  0  0  0  0  0  0  0  0  0  0
   -1.2101   -0.2978    2.5438 H   0  0  0  0  0  0  0  0  0  0  0  0
   -1.1014    1.4781    2.5310 H   0  0  0  0  0  0  0  0  0  0  0  0
    0.3703    0.4980    2.7248 H   0  0  0  0  0  0  0  0  0  0  0  0
   -1.3022   -1.8563   -3.3570 C   0  0  0  0  0  0  0  0  0  0  0  0
   -1.9335   -3.1977   -3.6649 C   0  0  1  0  0  0  0  0  0  0  0  0
   -0.8630   -1.1151   -4.2177 O   0  0  0  0  0  0  0  0  0  0  0  0
   -2.9547   -3.2285   -3.2913 H   0  0  0  0  0  0  0  0  0  0  0  0
   -1.9367   -3.3575   -4.7393 H   0  0  0  0  0  0  0  0  0  0  0  0
   -1.3656   -3.9918   -3.1860 H   0  0  0  0  0  0  0  0  0  0  0  0
  1  3  1  0
  1 30  1  0
  1  2  1  0
  3  4  1  1
  3  6  1  0
  3  5  1  0
  5  9  1  0
  5  7  1  1
  5  8  1  0
  6 24  1  0
  6 10  1  0
  9 11  1  1
  9 12  1  0
  9 13  1  0
 13 15  1  6
 13 14  1  0
 13 16  1  0
 16 18  1  0
 16 17  1  0
 18 19  1  6
 18 20  1  0
 19 21  1  0
 20 22  1  0
 20 23  1  0
 24 26  1  0
 24 25  1  0
 25 27  1  1
 25 29  1  0
 25 28  1  0
 30 32  1  0
 30 31  1  0
 31 35  1  1
 31 34  1  0
 31 33  1  0
M  END
$$$$
