 energy: -51.737739822496 gnorm: 0.000041451617 xtb: 6.5.1 (9af7eec)
     RDKit          3D

 35 34  0  0  0  0  0  0  0  0999 V2000
   -0.7158    0.0616    0.8259 N   0  0  0  0  0  0  0  0  0  0  0  0
   -0.4669    1.0321    0.9638 H   0  0  0  0  0  0  0  0  0  0  0  0
   -0.2645   -0.5799   -0.3871 C   0  0  1  0  0  0  0  0  0  0  0  0
   -1.0676   -1.2190   -0.7603 H   0  0  0  0  0  0  0  0  0  0  0  0
    0.0455    0.4856   -1.4493 C   0  0  1  0  0  0  0  0  0  0  0  0
    0.9595   -1.4791   -0.1526 C   0  0  0  0  0  0  0  0  0  0  0  0
   -0.8275    1.1391   -1.5270 H   0  0  0  0  0  0  0  0  0  0  0  0
    0.8907    1.0913   -1.1080 H   0  0  0  0  0  0  0  0  0  0  0  0
    0.3719   -0.0767   -2.8342 C   0  0  2  0  0  0  0  0  0  0  0  0
    1.2382   -2.3974   -0.9038 O   0  0  0  0  0  0  0  0  0  0  0  0
    1.2412   -0.7333   -2.7671 H   0  0  0  0  0  0  0  0  0  0  0  0
    0.6391    0.7643   -3.4770 H   0  0  0  0  0  0  0  0  0  0  0  0
   -0.7776   -0.8521   -3.5040 C   0  0  2  0  0  0  0  0  0  0  0  0
   -0.6442   -0.7979   -4.5913 H   0  0  0  0  0  0  0  0  0  0  0  0
   -1.7356   -0.3840   -3.2630 H   0  0  0  0  0  0  0  0  0  0  0  0
   -0.8293   -2.2441   -3.1348 N   0  0  0  0  0  0  0  0  0  0  0  0
    0.0642   -2.7126   -3.1760 H   0  0  0  0  0  0  0  0  0  0  0  0
   -1.7024   -2.7856   -2.2174 C   0  0  1  0  0  0  0  0  0  0  0  0
   -2.8470   -2.3477   -1.8635 N   0  0  0  0  0  0  0  0  0  0  0  0
   -1.2669   -3.9858   -1.7024 N   0  0  0  0  0  0  0  0  0  0  0  0
   -3.1668   -1.5296   -2.3704 H   0  0  0  0  0  0  0  0  0  0  0  0
   -1.8732   -4.3493   -0.9840 H   0  0  0  0  0  0  0  0  0  0  0  0
   -0.2811   -4.0313   -1.4877 H   0  0  0  0  0  0  0  0  0  0  0  0
    1.6935   -1.1548    0.9223 N   0  0  0  0  0  0  0  0  0  0  0  0
    2.8661   -1.8892    1.3291 C   0  0  2  0  0  0  0  0  0  0  0  0
    1.3558   -0.4271    1.5347 H   0  0  0  0  0  0  0  0  0  0  0  0
    3.0549   -2.6540    0.5775 H   0  0  0  0  0  0  0  0  0  0  0  0
    2.7081   -2.3651    2.2985 H   0  0  0  0  0  0  0  0  0  0  0  0
    3.7282   -1.2236    1.3938 H   0  0  0  0  0  0  0  0  0  0  0  0
   -1.5655   -0.4537    1.7582 C   0  0  0  0  0  0  0  0  0  0  0  0
   -2.0170   -1.8720    1.5262 C   0  0  1  0  0  0  0  0  0  0  0  0
   -1.8893    0.2159    2.7161 O   0  0  0  0  0  0  0  0  0  0  0  0
   -2.6000   -1.9461    0.6073 H   0  0  0  0  0  0  0  0  0  0  0  0
   -1.1569   -2.5334    1.4414 H   0  0  0  0  0  0  0  0  0  0  0  0
   -2.6331   -2.1828    2.3648 H   0  0  0  0  0  0  0  0  0  0  0  0
  1  3  1  0
  1 30  1  0
  1  2  1  0
  3  4  1  6
  3  6  1  0
  3  5  1  0
  5  9  1  0
  5  7  1  6
  5  8  1  0
  6 24  1  0
  6 10  1  0
  9 11  1  1
  9 12  1  0
  9 13  1  0
 13 15  1  6
 13 14  1  0
 13 16  1  0
 16 18  1  0
 16 17  1  0
 18 19  1  6
 18 20  1  0
 19 21  1  0
 20 22  1  0
 20 23  1  0
 24 26  1  0
 24 25  1  0
 25 27  1  6
 25 29  1  0
 25 28  1  0
 30 32  1  0
 30 31  1  0
 31 35  1  1
 31 34  1  0
 31 33  1  0
M  END
$$$$
