56

C          1.64060        3.24570       -4.41120
N          0.92710        2.14580       -3.84150
C         -0.36770        2.44850       -3.31960
C          1.01240        0.93170       -4.60060
C          2.36070        0.30590       -4.62380
C          2.84030       -0.10710       -3.29210
N          3.00360        0.91050       -2.29030
S          3.58820        0.18550       -0.81520
O          4.89890       -0.46450       -1.15900
O          3.84000        1.21730        0.22260
C          2.42380       -0.97250       -0.22230
C          1.40040       -0.63960        0.62950
C          0.48560       -1.60170        1.08180
C          0.56010       -2.92250        0.70140
C          1.61460       -3.22900       -0.16710
C          2.51300       -2.28800       -0.61230
N         -0.33920       -3.93680        1.11800
C         -1.49670       -3.77270        1.89540
N         -2.22250       -4.89880        2.18460
C         -3.34410       -4.83850        2.91710
C         -3.82270       -3.64460        3.41500
C         -3.09100       -2.48890        3.12680
N         -1.98900       -2.64890        2.39120
C         -3.53240       -1.19030        3.61620
C         -2.87800        0.00100        3.38900
N         -3.55830        1.02170        3.98650
C         -4.62940        0.46390        4.58100
N         -4.59900       -0.87990        4.34650
N         -5.56820       -1.62270        4.84550
C         -6.58460       -1.09490        5.57790
C         -6.65420        0.26150        5.83940
C         -5.63760        1.05480        5.31820
H          2.71820        2.93070       -4.48160
H          1.25360        3.59100       -5.38730
H          1.60340        4.08020       -3.65640
H         -1.16640        2.32400       -4.07030
H         -0.64510        1.81360       -2.44240
H         -0.35470        3.49980       -2.95530
H          0.29800        0.17430       -4.19350
H          0.73280        1.17800       -5.65520
H          2.28530       -0.58240       -5.31140
H          3.10510        1.00120       -5.13790
H          2.21660       -0.97000       -2.89290
H          3.85270       -0.58870       -3.42140
H          2.07100        1.35140       -2.10870
H          1.31520        0.38030        0.94450
H         -0.30560       -1.29030        1.75770
H          1.69330       -4.27480       -0.48320
H          3.32980       -2.57020       -1.29600
H         -0.10020       -4.92280        0.80300
H         -3.92720       -5.74150        3.14970
H         -4.71850       -3.63560        3.99360
H         -1.96020        0.07680        2.81510
H         -7.37460       -1.70440        5.98410
H         -7.42420        0.73440        6.40530
H         -5.63180        2.14320        5.48860
