Coordinates from ORCA-job xal
     RDKit          3D

 32 32  0  0  0  0  0  0  0  0999 V2000
   -1.5900   -0.4360   -0.4200 N   0  0  0  0  0  0  0  0  0  0  0  0
   -1.2300    0.5720    0.5370 C   0  0  2  0  0  0  0  0  0  0  0  0
   -0.7570    1.7780   -0.2660 C   0  0  0  0  0  0  0  0  0  0  0  0
   -0.5090    1.7060   -1.4650 O   0  0  0  0  0  0  0  0  0  0  0  0
   -0.1310    0.0910    1.5150 C   0  0  2  0  0  0  0  0  0  0  0  0
    1.0690   -0.4290    0.7840 C   0  0  2  0  0  0  0  0  0  0  0  0
    2.0720    0.4330    0.3310 C   0  0  0  0  0  0  0  0  0  0  0  0
    1.1720   -1.7930    0.4920 C   0  0  0  0  0  0  0  0  0  0  0  0
    3.1530   -0.0550   -0.3990 C   0  0  0  0  0  0  0  0  0  0  0  0
    2.2520   -2.2850   -0.2380 C   0  0  0  0  0  0  0  0  0  0  0  0
    3.2430   -1.4150   -0.6890 C   0  0  0  0  0  0  0  0  0  0  0  0
   -1.2570   -0.2760   -1.3590 H   0  0  0  0  0  0  0  0  0  0  0  0
   -2.1090    0.8420    1.1290 H   0  0  0  0  0  0  0  0  0  0  0  0
   -0.5740   -0.6930    2.1270 H   0  0  0  0  0  0  0  0  0  0  0  0
    0.1440    0.9210    2.1690 H   0  0  0  0  0  0  0  0  0  0  0  0
    2.0070    1.4910    0.5570 H   0  0  0  0  0  0  0  0  0  0  0  0
    0.4060   -2.4670    0.8550 H   0  0  0  0  0  0  0  0  0  0  0  0
    3.9230    0.6240   -0.7410 H   0  0  0  0  0  0  0  0  0  0  0  0
    2.3210   -3.3430   -0.4510 H   0  0  0  0  0  0  0  0  0  0  0  0
    4.0830   -1.7950   -1.2550 H   0  0  0  0  0  0  0  0  0  0  0  0
   -0.5830    2.9140    0.4500 N   0  0  0  0  0  0  0  0  0  0  0  0
   -0.9250    2.9450    1.3950 H   0  0  0  0  0  0  0  0  0  0  0  0
   -0.1430    4.1360   -0.1910 C   0  0  1  0  0  0  0  0  0  0  0  0
    0.2460    4.8140    0.5630 H   0  0  0  0  0  0  0  0  0  0  0  0
    0.6420    3.8940   -0.9020 H   0  0  0  0  0  0  0  0  0  0  0  0
   -0.9530    4.6250   -0.7330 H   0  0  0  0  0  0  0  0  0  0  0  0
   -2.1870   -1.5970   -0.0580 C   0  0  0  0  0  0  0  0  0  0  0  0
   -2.5320   -1.8280    1.0980 O   0  0  0  0  0  0  0  0  0  0  0  0
   -2.3720   -2.5960   -1.1740 C   0  0  2  0  0  0  0  0  0  0  0  0
   -3.3310   -3.0900   -1.0460 H   0  0  0  0  0  0  0  0  0  0  0  0
   -1.5900   -3.3500   -1.0970 H   0  0  0  0  0  0  0  0  0  0  0  0
   -2.3190   -2.1400   -2.1600 H   0  0  0  0  0  0  0  0  0  0  0  0
  1 12  1  0
  1 27  1  0
  1  2  1  0
  2  3  1  0
  2 13  1  1
  2  5  1  0
  3  4  1  0
  3 21  1  0
  5  6  1  0
  5 14  1  1
  5 15  1  0
  6  7  1  6
  6  8  1  0
  7  9  1  0
  7 16  1  0
  8 10  1  0
  8 17  1  0
  9 18  1  0
  9 11  1  0
 10 11  1  0
 10 19  1  0
 11 20  1  0
 21 23  1  0
 21 22  1  0
 23 25  1  6
 23 26  1  0
 23 24  1  0
 27 29  1  0
 27 28  1  0
 29 32  1  6
 29 31  1  0
 29 30  1  0
M  END
$$$$
