 energy: -29.807034497169 gnorm: 0.000034561099 xtb: 6.5.1 (9af7eec)
     RDKit          3D

 19 18  0  0  0  0  0  0  0  0999 V2000
    0.1458   -0.9193   -0.8310 C   0  0  2  0  0  0  0  0  0  0  0  0
   -0.2594   -1.3012   -1.7681 H   0  0  0  0  0  0  0  0  0  0  0  0
    0.9922   -1.5349   -0.5128 H   0  0  0  0  0  0  0  0  0  0  0  0
   -0.8767   -0.9953    0.1931 N   0  0  0  0  0  0  0  0  0  0  0  0
   -1.8368   -0.9292   -0.1028 H   0  0  0  0  0  0  0  0  0  0  0  0
    0.6321    0.5248   -1.0529 C   0  0  0  0  0  0  0  0  0  0  0  0
    0.3745    1.1508   -2.0602 O   0  0  0  0  0  0  0  0  0  0  0  0
   -0.5851   -1.0053    1.5111 C   0  0  0  0  0  0  0  0  0  0  0  0
    0.5592   -0.9488    1.9248 O   0  0  0  0  0  0  0  0  0  0  0  0
    1.3527    0.9897   -0.0218 N   0  0  0  0  0  0  0  0  0  0  0  0
    1.4648    0.4004    0.7972 H   0  0  0  0  0  0  0  0  0  0  0  0
    1.8809    2.3306    0.0178 C   0  0  1  0  0  0  0  0  0  0  0  0
    2.9638    2.3080    0.1488 H   0  0  0  0  0  0  0  0  0  0  0  0
    1.6400    2.8124   -0.9287 H   0  0  0  0  0  0  0  0  0  0  0  0
    1.4357    2.8979    0.8376 H   0  0  0  0  0  0  0  0  0  0  0  0
   -1.7947   -1.1027    2.4111 C   0  0  2  0  0  0  0  0  0  0  0  0
   -1.4677   -1.1759    3.4440 H   0  0  0  0  0  0  0  0  0  0  0  0
   -2.3866   -1.9788    2.1564 H   0  0  0  0  0  0  0  0  0  0  0  0
   -2.4143   -0.2158    2.2951 H   0  0  0  0  0  0  0  0  0  0  0  0
  1  4  1  0
  1  2  1  6
  1  6  1  0
  1  3  1  0
  4  8  1  0
  4  5  1  0
  6 10  1  0
  6  7  1  0
  8 16  1  0
  8  9  1  0
 10 11  1  0
 10 12  1  0
 12 14  1  6
 12 13  1  0
 12 15  1  0
 16 19  1  1
 16 18  1  0
 16 17  1  0
M  END
$$$$
