 energy: -29.804056883885 gnorm: 0.000032415528 xtb: 6.5.1 (9af7eec)
     RDKit          3D

 19 18  0  0  0  0  0  0  0  0999 V2000
    0.9780   -0.7039   -0.4161 C   0  0  2  0  0  0  0  0  0  0  0  0
    0.5027   -1.6877   -0.5322 H   0  0  0  0  0  0  0  0  0  0  0  0
    1.4711   -0.6707    0.5607 H   0  0  0  0  0  0  0  0  0  0  0  0
   -0.0089    0.3437   -0.4601 N   0  0  0  0  0  0  0  0  0  0  0  0
   -0.1205    0.7689   -1.3717 H   0  0  0  0  0  0  0  0  0  0  0  0
    1.9741   -0.5040   -1.5564 C   0  0  0  0  0  0  0  0  0  0  0  0
    1.7754    0.2962   -2.4471 O   0  0  0  0  0  0  0  0  0  0  0  0
   -0.3985    1.0035    0.6576 C   0  0  0  0  0  0  0  0  0  0  0  0
   -0.0846    0.6365    1.7704 O   0  0  0  0  0  0  0  0  0  0  0  0
    3.0555   -1.3028   -1.4892 N   0  0  0  0  0  0  0  0  0  0  0  0
    3.1580   -1.9339   -0.7107 H   0  0  0  0  0  0  0  0  0  0  0  0
    4.1040   -1.2829   -2.4812 C   0  0  1  0  0  0  0  0  0  0  0  0
    4.2067   -2.2617   -2.9527 H   0  0  0  0  0  0  0  0  0  0  0  0
    3.8272   -0.5462   -3.2332 H   0  0  0  0  0  0  0  0  0  0  0  0
    5.0566   -0.9996   -2.0305 H   0  0  0  0  0  0  0  0  0  0  0  0
   -1.2830    2.1980    0.3767 C   0  0  2  0  0  0  0  0  0  0  0  0
   -1.6223    2.6240    1.3161 H   0  0  0  0  0  0  0  0  0  0  0  0
   -2.1422    1.8965   -0.2173 H   0  0  0  0  0  0  0  0  0  0  0  0
   -0.7222    2.9485   -0.1763 H   0  0  0  0  0  0  0  0  0  0  0  0
  1  4  1  0
  1  2  1  6
  1  6  1  0
  1  3  1  0
  4  8  1  0
  4  5  1  0
  6 10  1  0
  6  7  1  0
  8 16  1  0
  8  9  1  0
 10 11  1  0
 10 12  1  0
 12 14  1  6
 12 13  1  0
 12 15  1  0
 16 19  1  6
 16 18  1  0
 16 17  1  0
M  END
$$$$
