MCONF/18/struc.xyz
     RDKit          3D

 33 34  0  0  0  0  0  0  0  0999 V2000
   -1.8900   -2.9370   -0.0320 N   0  0  0  0  0  0  0  0  0  0  0  0
   -0.5280   -3.0380   -0.2300 C   0  0  0  0  0  0  0  0  0  0  0  0
    0.0280   -1.7840   -0.3340 C   0  0  0  0  0  0  0  0  0  0  0  0
   -1.0560   -0.8490   -0.1930 C   0  0  0  0  0  0  0  0  0  0  0  0
   -1.1170    0.5530   -0.2180 C   0  0  0  0  0  0  0  0  0  0  0  0
   -2.3550    1.1660   -0.0600 C   0  0  0  0  0  0  0  0  0  0  0  0
   -3.5300    0.4020    0.1230 C   0  0  0  0  0  0  0  0  0  0  0  0
   -3.4830   -0.9880    0.1490 C   0  0  0  0  0  0  0  0  0  0  0  0
   -2.2420   -1.6040   -0.0100 C   0  0  0  0  0  0  0  0  0  0  0  0
   -2.5240   -3.7110    0.0440 H   0  0  0  0  0  0  0  0  0  0  0  0
   -0.0530   -4.0040   -0.2900 H   0  0  0  0  0  0  0  0  0  0  0  0
   -0.2330    1.1620   -0.3550 H   0  0  0  0  0  0  0  0  0  0  0  0
   -4.4860    0.8880    0.2450 H   0  0  0  0  0  0  0  0  0  0  0  0
   -4.3900   -1.5610    0.2880 H   0  0  0  0  0  0  0  0  0  0  0  0
   -2.3450    2.5380   -0.0940 O   0  0  0  0  0  0  0  0  0  0  0  0
   -3.5890    3.1950    0.0610 C   0  0  2  0  0  0  0  0  0  0  0  0
   -4.0440    2.9720    1.0290 H   0  0  0  0  0  0  0  0  0  0  0  0
   -4.2870    2.9270   -0.7360 H   0  0  0  0  0  0  0  0  0  0  0  0
   -3.3730    4.2580    0.0040 H   0  0  0  0  0  0  0  0  0  0  0  0
    1.4690   -1.4300   -0.5190 C   0  0  2  0  0  0  0  0  0  0  0  0
    2.0690   -0.8410    0.7660 C   0  0  2  0  0  0  0  0  0  0  0  0
    3.3970   -0.2840    0.5660 N   0  0  0  0  0  0  0  0  0  0  0  0
    3.5610    0.9430   -0.0040 C   0  0  0  0  0  0  0  0  0  0  0  0
    4.9950    1.3730   -0.2350 C   0  0  2  0  0  0  0  0  0  0  0  0
    1.5690   -0.6830   -1.3090 H   0  0  0  0  0  0  0  0  0  0  0  0
    2.0430   -2.3090   -0.8210 H   0  0  0  0  0  0  0  0  0  0  0  0
    2.1280   -1.6080    1.5390 H   0  0  0  0  0  0  0  0  0  0  0  0
    1.4260   -0.0430    1.1330 H   0  0  0  0  0  0  0  0  0  0  0  0
    4.2040   -0.8600    0.7160 H   0  0  0  0  0  0  0  0  0  0  0  0
    2.6130    1.6560   -0.3070 O   0  0  0  0  0  0  0  0  0  0  0  0
    5.1670    1.4480   -1.3080 H   0  0  0  0  0  0  0  0  0  0  0  0
    5.7240    0.6900    0.1970 H   0  0  0  0  0  0  0  0  0  0  0  0
    5.1320    2.3630    0.1930 H   0  0  0  0  0  0  0  0  0  0  0  0
  1  2  1  0
  1  9  1  0
  1 10  1  0
  2  3  1  0
  2 11  1  0
  3 20  1  0
  3  4  1  0
  4  5  1  0
  4  9  1  0
  5 12  1  0
  5  6  1  0
  6 15  1  0
  6  7  1  0
  7  8  1  0
  7 13  1  0
  8  9  1  0
  8 14  1  0
 15 16  1  0
 16 18  1  6
 16 19  1  0
 16 17  1  0
 20 25  1  6
 20 26  1  0
 20 21  1  0
 21 22  1  0
 21 28  1  1
 21 27  1  0
 22 23  1  0
 22 29  1  0
 23 30  1  0
 23 24  1  0
 24 31  1  6
 24 33  1  0
 24 32  1  0
M  END
$$$$
