MCONF/19/struc.xyz
     RDKit          3D

 33 34  0  0  0  0  0  0  0  0999 V2000
    0.5710    2.3280   -0.6960 N   0  0  0  0  0  0  0  0  0  0  0  0
    1.4940    1.4640   -1.2410 C   0  0  0  0  0  0  0  0  0  0  0  0
    0.9620    0.1970   -1.3250 C   0  0  2  0  0  0  0  0  0  0  0  0
   -0.3690    0.2830   -0.7910 C   0  0  0  0  0  0  0  0  0  0  0  0
   -1.3880   -0.6610   -0.5930 C   0  0  0  0  0  0  0  0  0  0  0  0
   -2.5890   -0.2460   -0.0280 C   0  0  0  0  0  0  0  0  0  0  0  0
   -2.7890    1.1030    0.3430 C   0  0  0  0  0  0  0  0  0  0  0  0
   -1.7880    2.0510    0.1550 C   0  0  0  0  0  0  0  0  0  0  0  0
   -0.5820    1.6320   -0.4070 C   0  0  0  0  0  0  0  0  0  0  0  0
    0.7270    3.3030   -0.5190 H   0  0  0  0  0  0  0  0  0  0  0  0
    2.4770    1.8140   -1.5140 H   0  0  0  0  0  0  0  0  0  0  0  0
   -1.2720   -1.7000   -0.8700 H   0  0  0  0  0  0  0  0  0  0  0  0
   -3.7230    1.4180    0.7800 H   0  0  0  0  0  0  0  0  0  0  0  0
   -1.9530    3.0800    0.4450 H   0  0  0  0  0  0  0  0  0  0  0  0
   -3.5370   -1.2250    0.1340 O   0  0  0  0  0  0  0  0  0  0  0  0
   -4.7730   -0.8350    0.7060 C   0  0  2  0  0  0  0  0  0  0  0  0
   -5.2820   -0.0890    0.0910 H   0  0  0  0  0  0  0  0  0  0  0  0
   -4.6410   -0.4410    1.7160 H   0  0  0  0  0  0  0  0  0  0  0  0
   -5.3780   -1.7360    0.7490 H   0  0  0  0  0  0  0  0  0  0  0  0
    1.6740   -1.0520   -1.7360 C   0  0  2  0  0  0  0  0  0  0  0  0
    2.3250   -1.7580   -0.5310 C   0  0  2  0  0  0  0  0  0  0  0  0
    3.3790   -0.9660    0.0760 N   0  0  0  0  0  0  0  0  0  0  0  0
    3.2380   -0.0360    1.0780 C   0  0  0  0  0  0  0  0  0  0  0  0
    2.0160   -0.1570    1.9630 C   0  0  2  0  0  0  0  0  0  0  0  0
    2.4520   -0.8240   -2.4690 H   0  0  0  0  0  0  0  0  0  0  0  0
    0.9780   -1.7450   -2.2160 H   0  0  0  0  0  0  0  0  0  0  0  0
    2.7500   -2.7120   -0.8490 H   0  0  0  0  0  0  0  0  0  0  0  0
    1.5700   -1.9750    0.2220 H   0  0  0  0  0  0  0  0  0  0  0  0
    4.1910   -0.7850   -0.4950 H   0  0  0  0  0  0  0  0  0  0  0  0
    4.0990    0.8130    1.2690 O   0  0  0  0  0  0  0  0  0  0  0  0
    1.9160   -1.1670    2.3600 H   0  0  0  0  0  0  0  0  0  0  0  0
    1.1080    0.0810    1.4100 H   0  0  0  0  0  0  0  0  0  0  0  0
    2.1330    0.5450    2.7830 H   0  0  0  0  0  0  0  0  0  0  0  0
  1  2  1  0
  1 10  1  0
  1  9  1  0
  2 11  1  0
  3  2  1  1
  3 20  1  0
  3  4  1  0
  4  5  1  0
  4  9  1  0
  5 12  1  0
  5  6  1  0
  6 15  1  0
  6  7  1  0
  7  8  1  0
  7 13  1  0
  8  9  1  0
  8 14  1  0
 15 16  1  0
 16 17  1  6
 16 19  1  0
 16 18  1  0
 20 25  1  6
 20 26  1  0
 20 21  1  0
 21 27  1  6
 21 22  1  0
 21 28  1  0
 22 29  1  0
 22 23  1  0
 23 30  1  0
 23 24  1  0
 24 32  1  6
 24 31  1  0
 24 33  1  0
M  END
$$$$
