MCONF/31/struc.xyz
     RDKit          3D

 33 34  0  0  0  0  0  0  0  0999 V2000
    1.3760   -2.8580    0.0650 N   0  0  0  0  0  0  0  0  0  0  0  0
    0.0850   -2.5270    0.4130 C   0  0  0  0  0  0  0  0  0  0  0  0
   -0.0290   -1.1600    0.5430 C   0  0  0  0  0  0  0  0  0  0  0  0
    1.2700   -0.6190    0.2580 C   0  0  0  0  0  0  0  0  0  0  0  0
    1.7790    0.6990    0.2400 C   0  0  0  0  0  0  0  0  0  0  0  0
    3.1180    0.8800   -0.0700 C   0  0  0  0  0  0  0  0  0  0  0  0
    3.9580   -0.2240   -0.3630 C   0  0  0  0  0  0  0  0  0  0  0  0
    3.4770   -1.5180   -0.3470 C   0  0  0  0  0  0  0  0  0  0  0  0
    2.1240   -1.7060   -0.0330 C   0  0  0  0  0  0  0  0  0  0  0  0
    1.7210   -3.7910   -0.0650 H   0  0  0  0  0  0  0  0  0  0  0  0
   -0.6610   -3.2940    0.5510 H   0  0  0  0  0  0  0  0  0  0  0  0
    1.1330    1.5330    0.4710 H   0  0  0  0  0  0  0  0  0  0  0  0
    4.9930   -0.0190   -0.5990 H   0  0  0  0  0  0  0  0  0  0  0  0
    4.1310   -2.3510   -0.5700 H   0  0  0  0  0  0  0  0  0  0  0  0
    3.7490    2.0940   -0.1250 O   0  0  0  0  0  0  0  0  0  0  0  0
    2.9520    3.2300    0.1640 C   0  0  2  0  0  0  0  0  0  0  0  0
    2.5500    3.1850    1.1780 H   0  0  0  0  0  0  0  0  0  0  0  0
    2.1290    3.3280   -0.5480 H   0  0  0  0  0  0  0  0  0  0  0  0
    3.6100    4.0890    0.0750 H   0  0  0  0  0  0  0  0  0  0  0  0
   -1.2700   -0.3860    0.8590 C   0  0  2  0  0  0  0  0  0  0  0  0
   -1.8480    0.2940   -0.3930 C   0  0  2  0  0  0  0  0  0  0  0  0
   -3.0250    1.1010   -0.1280 N   0  0  0  0  0  0  0  0  0  0  0  0
   -4.3260    0.6760   -0.1000 C   0  0  0  0  0  0  0  0  0  0  0  0
   -4.5970   -0.7110   -0.6500 C   0  0  2  0  0  0  0  0  0  0  0  0
   -1.0590    0.3810    1.6080 H   0  0  0  0  0  0  0  0  0  0  0  0
   -2.0270   -1.0450    1.2900 H   0  0  0  0  0  0  0  0  0  0  0  0
   -2.0930   -0.4620   -1.1370 H   0  0  0  0  0  0  0  0  0  0  0  0
   -1.0870    0.9330   -0.8420 H   0  0  0  0  0  0  0  0  0  0  0  0
   -2.8930    2.0040    0.3010 H   0  0  0  0  0  0  0  0  0  0  0  0
   -5.2230    1.3960    0.3150 O   0  0  0  0  0  0  0  0  0  0  0  0
   -5.6580   -0.9090   -0.5390 H   0  0  0  0  0  0  0  0  0  0  0  0
   -4.0290   -1.4730   -0.1170 H   0  0  0  0  0  0  0  0  0  0  0  0
   -4.3290   -0.7680   -1.7050 H   0  0  0  0  0  0  0  0  0  0  0  0
  1 10  1  0
  1  9  1  0
  1  2  1  0
  2  3  1  0
  2 11  1  0
  3  4  1  0
  3 20  1  0
  4  9  1  0
  4  5  1  0
  5  6  1  0
  5 12  1  0
  6  7  1  0
  6 15  1  0
  7 13  1  0
  7  8  1  0
  8 14  1  0
  8  9  1  0
 15 16  1  0
 16 18  1  6
 16 19  1  0
 16 17  1  0
 20 21  1  0
 20 26  1  1
 20 25  1  0
 21 27  1  6
 21 28  1  0
 21 22  1  0
 22 23  1  0
 22 29  1  0
 23 24  1  0
 23 30  1  0
 24 33  1  6
 24 31  1  0
 24 32  1  0
M  END
$$$$
