MCONF/34/struc.xyz
     RDKit          3D

 33 34  0  0  0  0  0  0  0  0999 V2000
   -1.2930    3.0370   -0.3770 N   0  0  0  0  0  0  0  0  0  0  0  0
    0.0270    3.0830    0.0140 C   0  0  0  0  0  0  0  0  0  0  0  0
    0.4580    1.8260    0.3760 C   0  0  0  0  0  0  0  0  0  0  0  0
   -0.6710    0.9480    0.2050 C   0  0  0  0  0  0  0  0  0  0  0  0
   -0.8710   -0.4250    0.4170 C   0  0  0  0  0  0  0  0  0  0  0  0
   -2.1250   -0.9690    0.1670 C   0  0  0  0  0  0  0  0  0  0  0  0
   -3.1870   -0.1640   -0.3040 C   0  0  0  0  0  0  0  0  0  0  0  0
   -3.0070    1.1960   -0.5240 C   0  0  0  0  0  0  0  0  0  0  0  0
   -1.7500    1.7430   -0.2630 C   0  0  0  0  0  0  0  0  0  0  0  0
   -1.8440    3.8290   -0.6530 H   0  0  0  0  0  0  0  0  0  0  0  0
    0.5660    4.0170    0.0170 H   0  0  0  0  0  0  0  0  0  0  0  0
   -0.0810   -1.0810    0.7570 H   0  0  0  0  0  0  0  0  0  0  0  0
   -4.1570   -0.5960   -0.5000 H   0  0  0  0  0  0  0  0  0  0  0  0
   -3.8270    1.8040   -0.8840 H   0  0  0  0  0  0  0  0  0  0  0  0
   -2.2470   -2.3110    0.4140 O   0  0  0  0  0  0  0  0  0  0  0  0
   -3.4850   -2.9180    0.0880 C   0  0  1  0  0  0  0  0  0  0  0  0
   -4.3030   -2.5110    0.6870 H   0  0  0  0  0  0  0  0  0  0  0  0
   -3.7200   -2.8020   -0.9730 H   0  0  0  0  0  0  0  0  0  0  0  0
   -3.3660   -3.9730    0.3150 H   0  0  0  0  0  0  0  0  0  0  0  0
    1.8420    1.4670    0.8260 C   0  0  1  0  0  0  0  0  0  0  0  0
    2.7230    0.9380   -0.3170 C   0  0  1  0  0  0  0  0  0  0  0  0
    2.2300   -0.2910   -0.9100 N   0  0  0  0  0  0  0  0  0  0  0  0
    2.5220   -1.5650   -0.4990 C   0  0  0  0  0  0  0  0  0  0  0  0
    3.7020   -1.7270    0.4410 C   0  0  1  0  0  0  0  0  0  0  0  0
    2.3270    2.3500    1.2510 H   0  0  0  0  0  0  0  0  0  0  0  0
    1.7940    0.7140    1.6180 H   0  0  0  0  0  0  0  0  0  0  0  0
    2.7780    1.6960   -1.1010 H   0  0  0  0  0  0  0  0  0  0  0  0
    3.7380    0.7710    0.0400 H   0  0  0  0  0  0  0  0  0  0  0  0
    1.3770   -0.2340   -1.4460 H   0  0  0  0  0  0  0  0  0  0  0  0
    1.8770   -2.5250   -0.8950 O   0  0  0  0  0  0  0  0  0  0  0  0
    4.6170   -1.3390   -0.0070 H   0  0  0  0  0  0  0  0  0  0  0  0
    3.5370   -1.2010    1.3810 H   0  0  0  0  0  0  0  0  0  0  0  0
    3.8200   -2.7870    0.6400 H   0  0  0  0  0  0  0  0  0  0  0  0
  1 10  1  0
  1  9  1  0
  1  2  1  0
  2 11  1  0
  2  3  1  0
  3  4  1  0
  3 20  1  0
  4  9  1  0
  4  5  1  0
  5  6  1  0
  5 12  1  0
  6  7  1  0
  6 15  1  0
  7  8  1  0
  7 13  1  0
  8 14  1  0
  8  9  1  0
 15 16  1  0
 16 18  1  6
 16 19  1  0
 16 17  1  0
 20 21  1  0
 20 25  1  1
 20 26  1  0
 21 27  1  6
 21 22  1  0
 21 28  1  0
 22 29  1  0
 22 23  1  0
 23 30  1  0
 23 24  1  0
 24 31  1  6
 24 33  1  0
 24 32  1  0
M  END
$$$$
