MCONF/4/struc.xyz
     RDKit          3D

 33 34  0  0  0  0  0  0  0  0999 V2000
   -0.1810    2.6690   -0.4080 N   0  0  0  0  0  0  0  0  0  0  0  0
    0.8160    1.8940   -0.9630 C   0  0  0  0  0  0  0  0  0  0  0  0
    0.4010    0.5820   -1.0440 C   0  0  2  0  0  0  0  0  0  0  0  0
   -0.9300    0.5490   -0.5050 C   0  0  0  0  0  0  0  0  0  0  0  0
   -1.8700   -0.4910   -0.3270 C   0  0  0  0  0  0  0  0  0  0  0  0
   -3.1020   -0.1760    0.2250 C   0  0  0  0  0  0  0  0  0  0  0  0
   -3.4160    1.1530    0.6040 C   0  0  0  0  0  0  0  0  0  0  0  0
   -2.5110    2.1830    0.4360 C   0  0  0  0  0  0  0  0  0  0  0  0
   -1.2640    1.8690   -0.1230 C   0  0  0  0  0  0  0  0  0  0  0  0
   -0.1400    3.6640   -0.2830 H   0  0  0  0  0  0  0  0  0  0  0  0
    1.7510    2.3330   -1.2700 H   0  0  0  0  0  0  0  0  0  0  0  0
   -1.6250   -1.4990   -0.6300 H   0  0  0  0  0  0  0  0  0  0  0  0
   -4.3930    1.3380    1.0290 H   0  0  0  0  0  0  0  0  0  0  0  0
   -2.7660    3.1940    0.7260 H   0  0  0  0  0  0  0  0  0  0  0  0
   -4.1090   -1.0770    0.4530 O   0  0  0  0  0  0  0  0  0  0  0  0
   -3.8460   -2.4180    0.0800 C   0  0  2  0  0  0  0  0  0  0  0  0
   -2.9980   -2.8260    0.6350 H   0  0  0  0  0  0  0  0  0  0  0  0
   -3.6500   -2.5020   -0.9910 H   0  0  0  0  0  0  0  0  0  0  0  0
   -4.7420   -2.9790    0.3280 H   0  0  0  0  0  0  0  0  0  0  0  0
    1.2110   -0.5800   -1.5240 C   0  0  2  0  0  0  0  0  0  0  0  0
    1.6460   -1.4960   -0.3680 C   0  0  2  0  0  0  0  0  0  0  0  0
    2.3860   -0.7860    0.6600 N   0  0  0  0  0  0  0  0  0  0  0  0
    3.6890   -0.4300    0.4650 C   0  0  0  0  0  0  0  0  0  0  0  0
    4.2820    0.4720    1.5290 C   0  0  2  0  0  0  0  0  0  0  0  0
    2.1070   -0.2260   -2.0350 H   0  0  0  0  0  0  0  0  0  0  0  0
    0.6400   -1.1750   -2.2420 H   0  0  0  0  0  0  0  0  0  0  0  0
    2.2860   -2.2900   -0.7490 H   0  0  0  0  0  0  0  0  0  0  0  0
    0.7760   -1.9490    0.1060 H   0  0  0  0  0  0  0  0  0  0  0  0
    1.8600   -0.2760    1.3470 H   0  0  0  0  0  0  0  0  0  0  0  0
    4.3430   -0.8210   -0.4920 O   0  0  0  0  0  0  0  0  0  0  0  0
    5.2230    0.0410    1.8640 H   0  0  0  0  0  0  0  0  0  0  0  0
    3.6250    0.6150    2.3850 H   0  0  0  0  0  0  0  0  0  0  0  0
    4.5020    1.4400    1.0810 H   0  0  0  0  0  0  0  0  0  0  0  0
  1  2  1  0
  1 10  1  0
  1  9  1  0
  2 11  1  0
  3  2  1  1
  3 20  1  0
  3  4  1  0
  4  5  1  0
  4  9  1  0
  5 12  1  0
  5  6  1  0
  6 15  1  0
  6  7  1  0
  7  8  1  0
  7 13  1  0
  8  9  1  0
  8 14  1  0
 15 16  1  0
 16 18  1  6
 16 19  1  0
 16 17  1  0
 20 26  1  6
 20 25  1  0
 20 21  1  0
 21 27  1  6
 21 28  1  0
 21 22  1  0
 22 23  1  0
 22 29  1  0
 23 30  1  0
 23 24  1  0
 24 33  1  6
 24 31  1  0
 24 32  1  0
M  END
$$$$
