-39.29741270
     RDKit          3D

 28 27  0  0  1  0  0  0  0  0999 V2000
   -0.9474    0.1263   -0.6103 N   0  0  0  0  0  0  0  0  0  0  0  0
   -0.0181   -0.5868    0.2323 C   0  0  2  0  0  0  0  0  0  0  0  0
    1.0552    0.3322    0.8409 C   0  0  0  0  0  0  0  0  0  0  0  0
    1.3394    0.2493    2.0208 O   0  0  0  0  0  0  0  0  0  0  0  0
    0.5992   -1.7740   -0.5318 C   0  0  1  0  0  0  0  0  0  0  0  0
    1.7018   -2.4355    0.2908 C   0  0  2  0  0  0  0  0  0  0  0  0
   -0.4909   -2.7903   -0.8691 C   0  0  1  0  0  0  0  0  0  0  0  0
   -0.8414    0.0213   -1.6099 H   0  0  0  0  0  0  0  0  0  0  0  0
   -0.5572   -0.9953    1.0972 H   0  0  0  0  0  0  0  0  0  0  0  0
    1.0351   -1.4054   -1.4674 H   0  0  0  0  0  0  0  0  0  0  0  0
    1.3163   -2.7482    1.2579 H   0  0  0  0  0  0  0  0  0  0  0  0
    2.5283   -1.7514    0.4639 H   0  0  0  0  0  0  0  0  0  0  0  0
    2.0817   -3.3105   -0.2312 H   0  0  0  0  0  0  0  0  0  0  0  0
   -0.0831   -3.5869   -1.4868 H   0  0  0  0  0  0  0  0  0  0  0  0
   -0.8864   -3.2325    0.0423 H   0  0  0  0  0  0  0  0  0  0  0  0
   -1.3124   -2.3240   -1.4077 H   0  0  0  0  0  0  0  0  0  0  0  0
    1.6820    1.2316    0.0551 N   0  0  0  0  0  0  0  0  0  0  0  0
    2.3223    1.8219    0.5692 H   0  0  0  0  0  0  0  0  0  0  0  0
    1.4715    1.5776   -1.3308 C   0  0  1  0  0  0  0  0  0  0  0  0
    2.3143    2.1782   -1.6672 H   0  0  0  0  0  0  0  0  0  0  0  0
    1.4247    0.6842   -1.9518 H   0  0  0  0  0  0  0  0  0  0  0  0
    0.5549    2.1575   -1.4698 H   0  0  0  0  0  0  0  0  0  0  0  0
   -1.8695    1.0478   -0.2355 C   0  0  0  0  0  0  0  0  0  0  0  0
   -2.4943    1.6607   -1.0780 O   0  0  0  0  0  0  0  0  0  0  0  0
   -2.0641    1.2297    1.2486 C   0  0  2  0  0  0  0  0  0  0  0  0
   -2.4694    0.3161    1.6796 H   0  0  0  0  0  0  0  0  0  0  0  0
   -2.7661    2.0418    1.4143 H   0  0  0  0  0  0  0  0  0  0  0  0
   -1.1219    1.4534    1.7424 H   0  0  0  0  0  0  0  0  0  0  0  0
  1 23  1  0
  1  2  1  0
  2  3  1  0
  2  9  1  1
  3  4  2  0
  5  2  1  0
  5  6  1  0
  6 12  1  1
  6 11  1  0
  7  5  1  0
  7 15  1  1
  8  1  1  0
  5 10  1  6
 13  6  1  0
 14  7  1  0
 16  7  1  0
 17 18  1  0
 17  3  1  0
 19 17  1  0
 19 20  1  6
 21 19  1  0
 22 19  1  0
 23 25  1  0
 24 23  2  0
 25 27  1  6
 25 26  1  0
 25 28  1  0
M  END
$$$$
