-36.20971811
     RDKit          3D

 23 22  0  0  1  0  0  0  0  0999 V2000
   -1.1554    0.1047    0.6131 N   0  0  0  0  0  0  0  0  0  0  0  0
    0.1530    0.0956   -0.0002 C   0  0  2  0  0  0  0  0  0  0  0  0
    0.8384   -1.2428    0.3231 C   0  0  0  0  0  0  0  0  0  0  0  0
    1.8210   -1.3137    1.0352 O   0  0  0  0  0  0  0  0  0  0  0  0
    1.0074    1.2600    0.5134 C   0  0  1  0  0  0  0  0  0  0  0  0
    2.5487    1.4306   -0.4432 S   0  0  0  0  0  0  0  0  0  0  0  0
   -1.1947   -0.2122    1.5736 H   0  0  0  0  0  0  0  0  0  0  0  0
    0.0472    0.1791   -1.0860 H   0  0  0  0  0  0  0  0  0  0  0  0
    0.4720    2.2018    0.4002 H   0  0  0  0  0  0  0  0  0  0  0  0
    1.2707    1.1112    1.5596 H   0  0  0  0  0  0  0  0  0  0  0  0
   -2.2887    0.7255    0.1811 C   0  0  0  0  0  0  0  0  0  0  0  0
   -3.2769    0.7384    0.8805 O   0  0  0  0  0  0  0  0  0  0  0  0
    0.2795   -2.3398   -0.2155 N   0  0  0  0  0  0  0  0  0  0  0  0
   -0.8371   -2.4093   -1.1274 C   0  0  1  0  0  0  0  0  0  0  0  0
   -0.5919   -1.9443   -2.0865 H   0  0  0  0  0  0  0  0  0  0  0  0
   -1.0788   -3.4537   -1.3051 H   0  0  0  0  0  0  0  0  0  0  0  0
   -1.7147   -1.9161   -0.7079 H   0  0  0  0  0  0  0  0  0  0  0  0
    0.7537   -3.2032    0.0091 H   0  0  0  0  0  0  0  0  0  0  0  0
   -2.2420    1.3307   -1.2021 C   0  0  2  0  0  0  0  0  0  0  0  0
   -3.1969    1.8102   -1.3970 H   0  0  0  0  0  0  0  0  0  0  0  0
   -2.0761    0.5593   -1.9513 H   0  0  0  0  0  0  0  0  0  0  0  0
   -1.4490    2.0706   -1.2748 H   0  0  0  0  0  0  0  0  0  0  0  0
    3.1212    0.3461    0.0653 H   0  0  0  0  0  0  0  0  0  0  0  0
  1  7  1  0
  2  8  1  6
  2  3  1  0
  2  5  1  0
  2  1  1  0
  3  4  2  0
  5 10  1  1
  6 23  1  0
  6  5  1  0
  9  5  1  0
 11  1  1  0
 11 12  2  0
 13 18  1  0
 13  3  1  0
 14 17  1  1
 14 13  1  0
 15 14  1  0
 16 14  1  0
 19 11  1  0
 19 20  1  6
 21 19  1  0
 22 19  1  0
M  END
$$$$
