-36.20613775
     RDKit          3D

 23 22  0  0  1  0  0  0  0  0999 V2000
   -0.6995    0.4972    0.2871 N   0  0  0  0  0  0  0  0  0  0  0  0
    0.5490    0.1598   -0.3411 C   0  0  2  0  0  0  0  0  0  0  0  0
    0.6445   -1.2933   -0.8523 C   0  0  0  0  0  0  0  0  0  0  0  0
    1.2331   -1.5287   -1.8890 O   0  0  0  0  0  0  0  0  0  0  0  0
    1.7225    0.3840    0.6106 C   0  0  1  0  0  0  0  0  0  0  0  0
    1.7569    2.0790    1.2944 S   0  0  0  0  0  0  0  0  0  0  0  0
   -0.6723    0.7605    1.2636 H   0  0  0  0  0  0  0  0  0  0  0  0
    0.7032    0.7873   -1.2321 H   0  0  0  0  0  0  0  0  0  0  0  0
    1.6571   -0.2657    1.4832 H   0  0  0  0  0  0  0  0  0  0  0  0
    2.6632    0.1920    0.0960 H   0  0  0  0  0  0  0  0  0  0  0  0
   -1.9237    0.5702   -0.2972 C   0  0  0  0  0  0  0  0  0  0  0  0
   -2.9040    0.8304    0.3667 O   0  0  0  0  0  0  0  0  0  0  0  0
    0.1127   -2.2857   -0.1160 N   0  0  0  0  0  0  0  0  0  0  0  0
   -0.6445   -2.2428    1.1140 C   0  0  1  0  0  0  0  0  0  0  0  0
   -1.6727   -1.9128    0.9463 H   0  0  0  0  0  0  0  0  0  0  0  0
   -0.6664   -3.2447    1.5379 H   0  0  0  0  0  0  0  0  0  0  0  0
   -0.1787   -1.5770    1.8383 H   0  0  0  0  0  0  0  0  0  0  0  0
    0.2062   -3.1937   -0.5515 H   0  0  0  0  0  0  0  0  0  0  0  0
   -1.9631    0.3075   -1.7824 C   0  0  2  0  0  0  0  0  0  0  0  0
   -1.4871   -0.6378   -2.0305 H   0  0  0  0  0  0  0  0  0  0  0  0
   -1.4374    1.1027   -2.3082 H   0  0  0  0  0  0  0  0  0  0  0  0
   -2.9987    0.2927   -2.1095 H   0  0  0  0  0  0  0  0  0  0  0  0
    1.9253    2.7027    0.1310 H   0  0  0  0  0  0  0  0  0  0  0  0
  1  7  1  0
  2  8  1  6
  2  1  1  0
  2  5  1  0
  3  2  1  0
  3 13  1  0
  4  3  2  0
  5  6  1  0
  5  9  1  1
 10  5  1  0
 11  1  1  0
 11 12  2  0
 13 14  1  0
 14 16  1  1
 14 17  1  0
 15 14  1  0
 18 13  1  0
 19 11  1  0
 19 20  1  1
 21 19  1  0
 22 19  1  0
 23  6  1  0
M  END
$$$$
