-36.20599012
     RDKit          3D

 23 22  0  0  1  0  0  0  0  0999 V2000
   -0.6829    0.3436   -0.6532 N   0  0  0  0  0  0  0  0  0  0  0  0
    0.6380   -0.1436   -0.3209 C   0  0  2  0  0  0  0  0  0  0  0  0
    0.6101   -1.4482    0.4932 C   0  0  0  0  0  0  0  0  0  0  0  0
    1.1812   -1.5611    1.5578 O   0  0  0  0  0  0  0  0  0  0  0  0
    1.4849    0.9060    0.4072 C   0  0  1  0  0  0  0  0  0  0  0  0
    1.7993    2.3607   -0.6473 S   0  0  0  0  0  0  0  0  0  0  0  0
   -0.7742    0.7804   -1.5615 H   0  0  0  0  0  0  0  0  0  0  0  0
    1.1415   -0.3753   -1.2687 H   0  0  0  0  0  0  0  0  0  0  0  0
    1.0114    1.2423    1.3270 H   0  0  0  0  0  0  0  0  0  0  0  0
    2.4612    0.4882    0.6466 H   0  0  0  0  0  0  0  0  0  0  0  0
   -1.7730    0.5452    0.1392 C   0  0  0  0  0  0  0  0  0  0  0  0
   -2.7363    1.1217   -0.3207 O   0  0  0  0  0  0  0  0  0  0  0  0
   -0.0489   -2.4806   -0.0656 N   0  0  0  0  0  0  0  0  0  0  0  0
   -0.7695   -2.5215   -1.3150 C   0  0  1  0  0  0  0  0  0  0  0  0
   -0.2056   -2.0213   -2.1022 H   0  0  0  0  0  0  0  0  0  0  0  0
   -0.9118   -3.5608   -1.6024 H   0  0  0  0  0  0  0  0  0  0  0  0
   -1.7491   -2.0434   -1.2328 H   0  0  0  0  0  0  0  0  0  0  0  0
   -0.0594   -3.3181    0.5000 H   0  0  0  0  0  0  0  0  0  0  0  0
   -1.7476   -0.0187    1.5368 C   0  0  2  0  0  0  0  0  0  0  0  0
   -1.9968   -1.0781    1.4994 H   0  0  0  0  0  0  0  0  0  0  0  0
   -2.5104    0.4878    2.1227 H   0  0  0  0  0  0  0  0  0  0  0  0
   -0.7817    0.0882    2.0186 H   0  0  0  0  0  0  0  0  0  0  0  0
    0.5552    2.8358   -0.6117 H   0  0  0  0  0  0  0  0  0  0  0  0
  1  2  1  0
  1 11  1  0
  2  8  1  6
  2  5  1  0
  2  3  1  0
  3  4  2  0
  5 10  1  1
  5  9  1  0
  6 23  1  0
  6  5  1  0
  7  1  1  0
 11 19  1  0
 12 11  2  0
 13  3  1  0
 13 18  1  0
 14 17  1  1
 14 13  1  0
 15 14  1  0
 16 14  1  0
 19 22  1  1
 19 21  1  0
 20 19  1  0
M  END
$$$$
