-36.20567349
     RDKit          3D

 23 22  0  0  1  0  0  0  0  0999 V2000
   -0.9063    0.4178    0.5539 N   0  0  0  0  0  0  0  0  0  0  0  0
   -0.0737   -0.2331   -0.4194 C   0  0  2  0  0  0  0  0  0  0  0  0
    0.6337   -1.4049    0.2695 C   0  0  0  0  0  0  0  0  0  0  0  0
    1.0502   -1.2991    1.4087 O   0  0  0  0  0  0  0  0  0  0  0  0
    1.0175    0.7040   -0.9814 C   0  0  1  0  0  0  0  0  0  0  0  0
    1.9571    1.5750    0.3225 S   0  0  0  0  0  0  0  0  0  0  0  0
   -0.5381    0.4186    1.4988 H   0  0  0  0  0  0  0  0  0  0  0  0
   -0.6879   -0.5877   -1.2504 H   0  0  0  0  0  0  0  0  0  0  0  0
    1.7195    0.1415   -1.6001 H   0  0  0  0  0  0  0  0  0  0  0  0
    0.5687    1.4955   -1.5808 H   0  0  0  0  0  0  0  0  0  0  0  0
   -2.0781    1.0765    0.3748 C   0  0  0  0  0  0  0  0  0  0  0  0
   -2.6538    1.5816    1.3116 O   0  0  0  0  0  0  0  0  0  0  0  0
    0.8289   -2.5259   -0.4454 N   0  0  0  0  0  0  0  0  0  0  0  0
    0.3779   -2.8255   -1.7838 C   0  0  1  0  0  0  0  0  0  0  0  0
   -0.7123   -2.8929   -1.8327 H   0  0  0  0  0  0  0  0  0  0  0  0
    0.7187   -2.0689   -2.4926 H   0  0  0  0  0  0  0  0  0  0  0  0
    0.7927   -3.7844   -2.0832 H   0  0  0  0  0  0  0  0  0  0  0  0
    1.3024   -3.2617    0.0605 H   0  0  0  0  0  0  0  0  0  0  0  0
   -2.6163    1.1160   -1.0409 C   0  0  2  0  0  0  0  0  0  0  0  0
   -3.5183    1.7209   -1.0453 H   0  0  0  0  0  0  0  0  0  0  0  0
   -2.8662    0.1119   -1.3789 H   0  0  0  0  0  0  0  0  0  0  0  0
   -1.8898    1.5525   -1.7214 H   0  0  0  0  0  0  0  0  0  0  0  0
    2.0289    0.5394    1.1567 H   0  0  0  0  0  0  0  0  0  0  0  0
  1  7  1  0
  2  8  1  6
  2  3  1  0
  2  1  1  0
  3  4  2  0
  5  2  1  0
  5  6  1  0
  6 23  1  0
  5  9  1  6
 10  5  1  0
 11  1  1  0
 11 12  2  0
 13 18  1  0
 13  3  1  0
 14 13  1  0
 14 15  1  1
 16 14  1  0
 17 14  1  0
 19 11  1  0
 19 20  1  1
 21 19  1  0
 22 19  1  0
M  END
$$$$
