-36.20821342
     RDKit          3D

 23 22  0  0  1  0  0  0  0  0999 V2000
   -0.7239    0.0635    0.5579 N   0  0  0  0  0  0  0  0  0  0  0  0
    0.5336   -0.2276   -0.0898 C   0  0  2  0  0  0  0  0  0  0  0  0
    0.9726   -1.6473    0.3201 C   0  0  0  0  0  0  0  0  0  0  0  0
    1.9092   -1.8436    1.0656 O   0  0  0  0  0  0  0  0  0  0  0  0
    1.6320    0.7538    0.3303 C   0  0  1  0  0  0  0  0  0  0  0  0
    1.2966    2.4619   -0.2084 S   0  0  0  0  0  0  0  0  0  0  0  0
   -0.7555   -0.1262    1.5522 H   0  0  0  0  0  0  0  0  0  0  0  0
    0.3992   -0.1824   -1.1733 H   0  0  0  0  0  0  0  0  0  0  0  0
    1.7644    0.7438    1.4112 H   0  0  0  0  0  0  0  0  0  0  0  0
    2.5743    0.4750   -0.1385 H   0  0  0  0  0  0  0  0  0  0  0  0
   -1.8278    0.6971    0.0733 C   0  0  0  0  0  0  0  0  0  0  0  0
   -2.7656    0.9140    0.8097 O   0  0  0  0  0  0  0  0  0  0  0  0
    0.2402   -2.6630   -0.1735 N   0  0  0  0  0  0  0  0  0  0  0  0
   -0.8901   -2.5967   -1.0680 C   0  0  1  0  0  0  0  0  0  0  0  0
   -1.7060   -2.0187   -0.6299 H   0  0  0  0  0  0  0  0  0  0  0  0
   -0.6081   -2.1477   -2.0239 H   0  0  0  0  0  0  0  0  0  0  0  0
   -1.2452   -3.6060   -1.2578 H   0  0  0  0  0  0  0  0  0  0  0  0
    0.5399   -3.5775    0.1342 H   0  0  0  0  0  0  0  0  0  0  0  0
   -1.8186    1.0757   -1.3884 C   0  0  2  0  0  0  0  0  0  0  0  0
   -1.7831    0.1877   -2.0156 H   0  0  0  0  0  0  0  0  0  0  0  0
   -0.9663    1.7099   -1.6190 H   0  0  0  0  0  0  0  0  0  0  0  0
   -2.7348    1.6186   -1.6023 H   0  0  0  0  0  0  0  0  0  0  0  0
    0.2587    2.6719    0.5998 H   0  0  0  0  0  0  0  0  0  0  0  0
  1  7  1  0
  2  8  1  6
  2  3  1  0
  2  5  1  0
  2  1  1  0
  3  4  2  0
  5  9  1  1
  6  5  1  0
  6 23  1  0
 10  5  1  0
 11  1  1  0
 11 12  2  0
 13 18  1  0
 13  3  1  0
 14 15  1  1
 14 13  1  0
 16 14  1  0
 17 14  1  0
 19 11  1  0
 19 20  1  6
 21 19  1  0
 22 19  1  0
M  END
$$$$
