-36.20664283
     RDKit          3D

 23 22  0  0  1  0  0  0  0  0999 V2000
   -0.8398    0.8001    0.1913 N   0  0  0  0  0  0  0  0  0  0  0  0
    0.3737    0.6514   -0.5614 C   0  0  2  0  0  0  0  0  0  0  0  0
    0.7520   -0.7844   -0.9828 C   0  0  0  0  0  0  0  0  0  0  0  0
    1.4785   -0.9331   -1.9484 O   0  0  0  0  0  0  0  0  0  0  0  0
    1.5523    1.2828    0.1841 C   0  0  1  0  0  0  0  0  0  0  0  0
    1.9282    0.4746    1.7795 S   0  0  0  0  0  0  0  0  0  0  0  0
   -0.7471    0.9290    1.1908 H   0  0  0  0  0  0  0  0  0  0  0  0
    0.2832    1.1988   -1.5109 H   0  0  0  0  0  0  0  0  0  0  0  0
    2.4472    1.2486   -0.4349 H   0  0  0  0  0  0  0  0  0  0  0  0
    1.3214    2.3178    0.4359 H   0  0  0  0  0  0  0  0  0  0  0  0
   -2.1132    0.6928   -0.2675 C   0  0  0  0  0  0  0  0  0  0  0  0
   -3.0510    0.7667    0.4970 O   0  0  0  0  0  0  0  0  0  0  0  0
    0.3112   -1.8499   -0.2908 N   0  0  0  0  0  0  0  0  0  0  0  0
   -0.5147   -1.9534    0.8929 C   0  0  1  0  0  0  0  0  0  0  0  0
   -0.4486   -2.9736    1.2642 H   0  0  0  0  0  0  0  0  0  0  0  0
   -0.1611   -1.2834    1.6756 H   0  0  0  0  0  0  0  0  0  0  0  0
   -1.5621   -1.7304    0.6792 H   0  0  0  0  0  0  0  0  0  0  0  0
    0.6055   -2.7246   -0.7050 H   0  0  0  0  0  0  0  0  0  0  0  0
   -2.2619    0.4838   -1.7557 C   0  0  2  0  0  0  0  0  0  0  0  0
   -3.3107    0.3144   -1.9818 H   0  0  0  0  0  0  0  0  0  0  0  0
   -1.6731   -0.3665   -2.0920 H   0  0  0  0  0  0  0  0  0  0  0  0
   -1.9255    1.3709   -2.2892 H   0  0  0  0  0  0  0  0  0  0  0  0
    2.5026   -0.6104    1.2648 H   0  0  0  0  0  0  0  0  0  0  0  0
  1  7  1  0
  2  8  1  6
  2  5  1  0
  2  1  1  0
  3  2  1  0
  3 13  1  0
  4  3  2  0
  5 10  1  1
  5  6  1  0
  9  5  1  0
 11  1  1  0
 11 12  2  0
 13 14  1  0
 14 15  1  1
 14 16  1  0
 17 14  1  0
 18 13  1  0
 19 11  1  0
 19 20  1  1
 21 19  1  0
 22 19  1  0
 23  6  1  0
M  END
$$$$
