-69.00820862
     RDKit          3D

 43 42  0  0  1  0  0  0  0  0999 V2000
   -2.3907   -0.8543   -1.4541 H   0  0  0  0  0  0  0  0  0  0  0  0
   -1.7684   -1.6115   -1.9226 C   0  0  1  0  0  0  0  0  0  0  0  0
   -0.7387   -1.2561   -1.9483 H   0  0  0  0  0  0  0  0  0  0  0  0
   -2.0903   -1.7727   -2.9476 H   0  0  0  0  0  0  0  0  0  0  0  0
   -1.8195   -2.9271   -1.1911 C   0  0  0  0  0  0  0  0  0  0  0  0
   -1.7860   -4.0035   -1.7449 O   0  0  0  0  0  0  0  0  0  0  0  0
   -1.8591   -2.8730    0.1730 N   0  0  0  0  0  0  0  0  0  0  0  0
   -1.9120   -3.7809    0.6153 H   0  0  0  0  0  0  0  0  0  0  0  0
   -2.0735   -1.7274    1.0256 C   0  0  1  0  0  0  0  0  0  0  0  0
   -2.9570   -1.1590    0.7015 H   0  0  0  0  0  0  0  0  0  0  0  0
   -2.2919   -2.1912    2.4659 C   0  0  2  0  0  0  0  0  0  0  0  0
   -1.4253   -2.7461    2.8194 H   0  0  0  0  0  0  0  0  0  0  0  0
   -3.1711   -2.8286    2.5259 H   0  0  0  0  0  0  0  0  0  0  0  0
   -2.4415   -1.3298    3.1116 H   0  0  0  0  0  0  0  0  0  0  0  0
   -0.8896   -0.7534    1.0186 C   0  0  0  0  0  0  0  0  0  0  0  0
   -1.0385    0.4378    1.2424 O   0  0  0  0  0  0  0  0  0  0  0  0
    0.3017   -1.3277    0.8280 N   0  0  0  0  0  0  0  0  0  0  0  0
    0.3516   -2.2918    0.5136 H   0  0  0  0  0  0  0  0  0  0  0  0
    1.5304   -0.5777    0.6704 C   0  0  1  0  0  0  0  0  0  0  0  0
    1.6656    0.0953    1.5187 H   0  0  0  0  0  0  0  0  0  0  0  0
    2.6837   -1.6006    0.5977 C   0  0  1  0  0  0  0  0  0  0  0  0
    3.6112   -1.0753    0.3277 H   0  0  0  0  0  0  0  0  0  0  0  0
    2.8197   -2.0731    1.5745 H   0  0  0  0  0  0  0  0  0  0  0  0
    2.3883   -2.6240   -0.3025 O   0  0  0  0  0  0  0  0  0  0  0  0
    2.1719   -2.2065   -1.1573 H   0  0  0  0  0  0  0  0  0  0  0  0
    1.4803    0.1735   -0.6672 C   0  0  0  0  0  0  0  0  0  0  0  0
    1.4557   -0.4673   -1.7104 O   0  0  0  0  0  0  0  0  0  0  0  0
    1.4690    1.5087   -0.6729 N   0  0  0  0  0  0  0  0  0  0  0  0
    1.4912    1.9239   -1.5982 H   0  0  0  0  0  0  0  0  0  0  0  0
    1.3676    2.4643    0.4145 C   0  0  1  0  0  0  0  0  0  0  0  0
    0.9797    1.9622    1.3025 H   0  0  0  0  0  0  0  0  0  0  0  0
    2.7164    3.1188    0.6946 C   0  0  1  0  0  0  0  0  0  0  0  0
    2.6383    3.7621    1.5664 H   0  0  0  0  0  0  0  0  0  0  0  0
    3.4796    2.3650    0.8730 H   0  0  0  0  0  0  0  0  0  0  0  0
    3.0052    3.7318   -0.1554 H   0  0  0  0  0  0  0  0  0  0  0  0
    0.3330    3.5198   -0.0432 C   0  0  0  0  0  0  0  0  0  0  0  0
    0.6609    4.5469   -0.5997 O   0  0  0  0  0  0  0  0  0  0  0  0
   -0.9306    3.1486    0.1988 N   0  0  0  0  0  0  0  0  0  0  0  0
   -1.1155    2.2528    0.6345 H   0  0  0  0  0  0  0  0  0  0  0  0
   -2.0617    3.9533   -0.1941 C   0  0  1  0  0  0  0  0  0  0  0  0
   -2.6766    3.4226   -0.9233 H   0  0  0  0  0  0  0  0  0  0  0  0
   -2.6733    4.1991    0.6752 H   0  0  0  0  0  0  0  0  0  0  0  0
   -1.6812    4.8702   -0.6416 H   0  0  0  0  0  0  0  0  0  0  0  0
  2  1  1  1
  2  5  1  0
  3  2  1  0
  4  2  1  0
  5  7  1  0
  6  5  2  0
  7  8  1  0
  7  9  1  0
  9 10  1  6
  9 11  1  0
 11 13  1  6
 11 12  1  0
 11 14  1  0
 15  9  1  0
 15 16  2  0
 17 15  1  0
 18 17  1  0
 19 17  1  0
 19 20  1  1
 21 19  1  0
 21 23  1  1
 22 21  1  0
 24 21  1  0
 25 24  1  0
 26 19  1  0
 27 26  2  0
 28 26  1  0
 28 30  1  0
 29 28  1  0
 30 32  1  0
 30 31  1  1
 32 34  1  1
 32 33  1  0
 35 32  1  0
 36 38  1  0
 36 30  1  0
 37 36  2  0
 38 39  1  0
 40 38  1  0
 40 42  1  1
 41 40  1  0
 43 40  1  0
M  END
$$$$
