-69.00780005
     RDKit          3D

 43 42  0  0  1  0  0  0  0  0999 V2000
   -2.6054   -1.6893   -3.3510 H   0  0  0  0  0  0  0  0  0  0  0  0
   -2.0796   -0.8368   -2.9308 C   0  0  1  0  0  0  0  0  0  0  0  0
   -2.5794    0.0852   -3.2145 H   0  0  0  0  0  0  0  0  0  0  0  0
   -1.0607   -0.8172   -3.3169 H   0  0  0  0  0  0  0  0  0  0  0  0
   -1.9869   -0.9249   -1.4319 C   0  0  0  0  0  0  0  0  0  0  0  0
   -2.0549    0.0573   -0.7022 O   0  0  0  0  0  0  0  0  0  0  0  0
   -1.8248   -2.1707   -0.9508 N   0  0  0  0  0  0  0  0  0  0  0  0
   -1.6190   -2.9151   -1.5994 H   0  0  0  0  0  0  0  0  0  0  0  0
   -1.5957   -2.4762    0.4556 C   0  0  1  0  0  0  0  0  0  0  0  0
   -2.2137   -1.7895    1.0448 H   0  0  0  0  0  0  0  0  0  0  0  0
   -1.9588   -3.9222    0.7444 C   0  0  2  0  0  0  0  0  0  0  0  0
   -1.8725   -4.1143    1.8100 H   0  0  0  0  0  0  0  0  0  0  0  0
   -1.2705   -4.5859    0.2262 H   0  0  0  0  0  0  0  0  0  0  0  0
   -2.9772   -4.1312    0.4266 H   0  0  0  0  0  0  0  0  0  0  0  0
   -0.1022   -2.1971    0.7330 C   0  0  0  0  0  0  0  0  0  0  0  0
    0.7105   -3.0891    0.8712 O   0  0  0  0  0  0  0  0  0  0  0  0
    0.1493   -0.8762    0.7780 N   0  0  0  0  0  0  0  0  0  0  0  0
   -0.6660   -0.2845    0.6347 H   0  0  0  0  0  0  0  0  0  0  0  0
    1.3840   -0.1793    0.4310 C   0  0  1  0  0  0  0  0  0  0  0  0
    1.5309    0.6153    1.1674 H   0  0  0  0  0  0  0  0  0  0  0  0
    2.6380   -1.0759    0.3827 C   0  0  1  0  0  0  0  0  0  0  0  0
    2.5048   -1.8169   -0.4150 H   0  0  0  0  0  0  0  0  0  0  0  0
    3.4886   -0.4362    0.1267 H   0  0  0  0  0  0  0  0  0  0  0  0
    2.9351   -1.6773    1.6016 O   0  0  0  0  0  0  0  0  0  0  0  0
    2.2941   -2.4017    1.7128 H   0  0  0  0  0  0  0  0  0  0  0  0
    1.1324    0.3616   -0.9815 C   0  0  0  0  0  0  0  0  0  0  0  0
    0.9172   -0.3980   -1.9092 O   0  0  0  0  0  0  0  0  0  0  0  0
    1.0801    1.6949   -1.1545 N   0  0  0  0  0  0  0  0  0  0  0  0
    0.8792    1.9862   -2.1030 H   0  0  0  0  0  0  0  0  0  0  0  0
    1.3310    2.7535   -0.1998 C   0  0  1  0  0  0  0  0  0  0  0  0
    2.3046    2.6044    0.2835 H   0  0  0  0  0  0  0  0  0  0  0  0
    1.3466    4.0950   -0.9301 C   0  0  1  0  0  0  0  0  0  0  0  0
    1.5344    4.8917   -0.2156 H   0  0  0  0  0  0  0  0  0  0  0  0
    2.1304    4.1099   -1.6844 H   0  0  0  0  0  0  0  0  0  0  0  0
    0.3860    4.2777   -1.4081 H   0  0  0  0  0  0  0  0  0  0  0  0
    0.2805    2.8461    0.9289 C   0  0  0  0  0  0  0  0  0  0  0  0
    0.5735    3.3439    1.9961 O   0  0  0  0  0  0  0  0  0  0  0  0
   -0.9439    2.4015    0.6138 N   0  0  0  0  0  0  0  0  0  0  0  0
   -1.1251    1.9238   -0.2582 H   0  0  0  0  0  0  0  0  0  0  0  0
   -2.0383    2.4400    1.5549 C   0  0  1  0  0  0  0  0  0  0  0  0
   -1.6357    2.6934    2.5342 H   0  0  0  0  0  0  0  0  0  0  0  0
   -2.7684    3.1969    1.2610 H   0  0  0  0  0  0  0  0  0  0  0  0
   -2.5305    1.4695    1.5879 H   0  0  0  0  0  0  0  0  0  0  0  0
  2  1  1  6
  2  5  1  0
  3  2  1  0
  4  2  1  0
  5  7  1  0
  5  6  2  0
  7  9  1  0
  8  7  1  0
  9 15  1  0
  9 11  1  0
  9 10  1  1
 11 12  1  1
 13 11  1  0
 14 11  1  0
 15 17  1  0
 15 16  2  0
 18 17  1  0
 19 17  1  0
 19 20  1  1
 21 19  1  0
 21 24  1  0
 21 22  1  6
 23 21  1  0
 24 25  1  0
 26 19  1  0
 27 26  2  0
 28 26  1  0
 28 30  1  0
 29 28  1  0
 30 31  1  1
 30 36  1  0
 32 33  1  1
 32 30  1  0
 34 32  1  0
 35 32  1  0
 36 37  2  0
 38 36  1  0
 38 40  1  0
 39 38  1  0
 40 43  1  1
 40 41  1  0
 42 40  1  0
M  END
$$$$
