-69.00677569
     RDKit          3D

 43 42  0  0  1  0  0  0  0  0999 V2000
   -1.6979   -3.0459   -2.4521 H   0  0  0  0  0  0  0  0  0  0  0  0
   -0.8797   -3.2974   -1.7800 C   0  0  1  0  0  0  0  0  0  0  0  0
   -0.2419   -2.4224   -1.6703 H   0  0  0  0  0  0  0  0  0  0  0  0
   -0.3009   -4.1080   -2.2129 H   0  0  0  0  0  0  0  0  0  0  0  0
   -1.4181   -3.7479   -0.4484 C   0  0  0  0  0  0  0  0  0  0  0  0
   -1.2384   -4.8506    0.0200 O   0  0  0  0  0  0  0  0  0  0  0  0
   -2.1414   -2.8253    0.2500 N   0  0  0  0  0  0  0  0  0  0  0  0
   -2.5155   -3.1582    1.1283 H   0  0  0  0  0  0  0  0  0  0  0  0
   -2.5081   -1.4914   -0.1559 C   0  0  1  0  0  0  0  0  0  0  0  0
   -2.8236   -1.4876   -1.2067 H   0  0  0  0  0  0  0  0  0  0  0  0
   -3.6607   -0.9794    0.7081 C   0  0  2  0  0  0  0  0  0  0  0  0
   -3.3631   -0.9435    1.7544 H   0  0  0  0  0  0  0  0  0  0  0  0
   -4.5237   -1.6331    0.6066 H   0  0  0  0  0  0  0  0  0  0  0  0
   -3.9403    0.0216    0.3908 H   0  0  0  0  0  0  0  0  0  0  0  0
   -1.3505   -0.4921   -0.0464 C   0  0  0  0  0  0  0  0  0  0  0  0
   -1.3364    0.5386   -0.6966 O   0  0  0  0  0  0  0  0  0  0  0  0
   -0.4138   -0.8012    0.8651 N   0  0  0  0  0  0  0  0  0  0  0  0
   -0.3701   -1.7548    1.2074 H   0  0  0  0  0  0  0  0  0  0  0  0
    0.8289   -0.0565    0.9335 C   0  0  1  0  0  0  0  0  0  0  0  0
    0.6647    0.8980    1.4411 H   0  0  0  0  0  0  0  0  0  0  0  0
    1.8609   -0.9267    1.6785 C   0  0  1  0  0  0  0  0  0  0  0  0
    2.8533   -0.4571    1.5996 H   0  0  0  0  0  0  0  0  0  0  0  0
    1.5947   -1.0016    2.7365 H   0  0  0  0  0  0  0  0  0  0  0  0
    1.8671   -2.2299    1.1798 O   0  0  0  0  0  0  0  0  0  0  0  0
    1.9303   -2.1940    0.2106 H   0  0  0  0  0  0  0  0  0  0  0  0
    1.3443    0.1378   -0.4974 C   0  0  0  0  0  0  0  0  0  0  0  0
    1.3444   -0.8101   -1.2674 O   0  0  0  0  0  0  0  0  0  0  0  0
    1.8139    1.3405   -0.8536 N   0  0  0  0  0  0  0  0  0  0  0  0
    2.1006    1.4033   -1.8227 H   0  0  0  0  0  0  0  0  0  0  0  0
    2.1215    2.4931   -0.0341 C   0  0  1  0  0  0  0  0  0  0  0  0
    2.5009    2.1580    0.9392 H   0  0  0  0  0  0  0  0  0  0  0  0
    3.2140    3.3118   -0.7208 C   0  0  1  0  0  0  0  0  0  0  0  0
    2.8758    3.6426   -1.7008 H   0  0  0  0  0  0  0  0  0  0  0  0
    3.4287    4.1894   -0.1176 H   0  0  0  0  0  0  0  0  0  0  0  0
    4.1225    2.7250   -0.8342 H   0  0  0  0  0  0  0  0  0  0  0  0
    0.9359    3.4440    0.2638 C   0  0  0  0  0  0  0  0  0  0  0  0
    1.1312    4.4362    0.9383 O   0  0  0  0  0  0  0  0  0  0  0  0
   -0.2395    3.1138   -0.2787 N   0  0  0  0  0  0  0  0  0  0  0  0
   -0.3924    2.2053   -0.7045 H   0  0  0  0  0  0  0  0  0  0  0  0
   -1.4257    3.9057   -0.0542 C   0  0  1  0  0  0  0  0  0  0  0  0
   -2.1718    3.3251    0.4901 H   0  0  0  0  0  0  0  0  0  0  0  0
   -1.1449    4.7816    0.5284 H   0  0  0  0  0  0  0  0  0  0  0  0
   -1.8500    4.2199   -1.0083 H   0  0  0  0  0  0  0  0  0  0  0  0
  2  1  1  6
  2  3  1  0
  2  5  1  0
  4  2  1  0
  5  6  2  0
  5  7  1  0
  7  8  1  0
  9 10  1  6
  9 15  1  0
  9  7  1  0
  9 11  1  0
 11 12  1  1
 13 11  1  0
 14 11  1  0
 15 17  1  0
 16 15  2  0
 17 19  1  0
 17 18  1  0
 19 20  1  1
 19 21  1  0
 21 23  1  1
 22 21  1  0
 24 21  1  0
 25 24  1  0
 26 19  1  0
 27 26  2  0
 28 26  1  0
 28 30  1  0
 29 28  1  0
 30 36  1  0
 30 31  1  1
 32 34  1  1
 32 30  1  0
 33 32  1  0
 35 32  1  0
 36 37  2  0
 38 40  1  0
 38 36  1  0
 39 38  1  0
 40 41  1  1
 40 42  1  0
 43 40  1  0
M  END
$$$$
