-69.00667802
     RDKit          3D

 43 42  0  0  1  0  0  0  0  0999 V2000
   -3.1882    0.5082    0.4426 H   0  0  0  0  0  0  0  0  0  0  0  0
   -3.7425   -0.2527   -0.1041 C   0  0  1  0  0  0  0  0  0  0  0  0
   -4.4974    0.2235   -0.7235 H   0  0  0  0  0  0  0  0  0  0  0  0
   -4.2305   -0.9148    0.6074 H   0  0  0  0  0  0  0  0  0  0  0  0
   -2.8176   -1.0370   -0.9948 C   0  0  0  0  0  0  0  0  0  0  0  0
   -2.9180   -1.0678   -2.2064 O   0  0  0  0  0  0  0  0  0  0  0  0
   -1.8241   -1.7365   -0.3877 N   0  0  0  0  0  0  0  0  0  0  0  0
   -1.3100   -2.3537   -1.0050 H   0  0  0  0  0  0  0  0  0  0  0  0
   -1.4381   -1.7506    0.9986 C   0  0  1  0  0  0  0  0  0  0  0  0
   -2.1144   -1.1072    1.5656 H   0  0  0  0  0  0  0  0  0  0  0  0
   -1.4937   -3.1710    1.5716 C   0  0  2  0  0  0  0  0  0  0  0  0
   -2.5090   -3.5558    1.5233 H   0  0  0  0  0  0  0  0  0  0  0  0
   -1.1645   -3.1567    2.6065 H   0  0  0  0  0  0  0  0  0  0  0  0
   -0.8412   -3.8332    1.0054 H   0  0  0  0  0  0  0  0  0  0  0  0
   -0.0281   -1.1989    1.2411 C   0  0  0  0  0  0  0  0  0  0  0  0
    0.4147   -1.0731    2.3641 O   0  0  0  0  0  0  0  0  0  0  0  0
    0.6820   -0.8484    0.1441 N   0  0  0  0  0  0  0  0  0  0  0  0
    0.3290   -1.0663   -0.7772 H   0  0  0  0  0  0  0  0  0  0  0  0
    2.1100   -0.6226    0.2259 C   0  0  1  0  0  0  0  0  0  0  0  0
    2.3716   -0.6170    1.2915 H   0  0  0  0  0  0  0  0  0  0  0  0
    2.8490   -1.7752   -0.4860 C   0  0  1  0  0  0  0  0  0  0  0  0
    3.9292   -1.6463   -0.3491 H   0  0  0  0  0  0  0  0  0  0  0  0
    2.5451   -2.7258   -0.0407 H   0  0  0  0  0  0  0  0  0  0  0  0
    2.5100   -1.8382   -1.8437 O   0  0  0  0  0  0  0  0  0  0  0  0
    2.8975   -1.0549   -2.2627 H   0  0  0  0  0  0  0  0  0  0  0  0
    2.5281    0.7114   -0.3968 C   0  0  0  0  0  0  0  0  0  0  0  0
    3.3310    0.7718   -1.3123 O   0  0  0  0  0  0  0  0  0  0  0  0
    1.9906    1.8303    0.1234 N   0  0  0  0  0  0  0  0  0  0  0  0
    2.3400    2.6914   -0.2813 H   0  0  0  0  0  0  0  0  0  0  0  0
    0.8995    1.9670    1.0600 C   0  0  1  0  0  0  0  0  0  0  0  0
    0.9398    1.1686    1.8069 H   0  0  0  0  0  0  0  0  0  0  0  0
    1.0021    3.3128    1.7762 C   0  0  1  0  0  0  0  0  0  0  0  0
    1.9363    3.3765    2.3284 H   0  0  0  0  0  0  0  0  0  0  0  0
    0.9539    4.1328    1.0613 H   0  0  0  0  0  0  0  0  0  0  0  0
    0.1743    3.4110    2.4725 H   0  0  0  0  0  0  0  0  0  0  0  0
   -0.4826    1.8945    0.3796 C   0  0  0  0  0  0  0  0  0  0  0  0
   -1.4913    1.7243    1.0345 O   0  0  0  0  0  0  0  0  0  0  0  0
   -0.4806    2.0937   -0.9480 N   0  0  0  0  0  0  0  0  0  0  0  0
    0.3973    2.1427   -1.4410 H   0  0  0  0  0  0  0  0  0  0  0  0
   -1.6848    2.1550   -1.7459 C   0  0  1  0  0  0  0  0  0  0  0  0
   -2.5221    2.3471   -1.0785 H   0  0  0  0  0  0  0  0  0  0  0  0
   -1.6018    2.9673   -2.4670 H   0  0  0  0  0  0  0  0  0  0  0  0
   -1.8639    1.2191   -2.2783 H   0  0  0  0  0  0  0  0  0  0  0  0
  2  1  1  1
  2  4  1  0
  3  2  1  0
  5  7  1  0
  5  2  1  0
  6  5  2  0
  7  9  1  0
  8  7  1  0
  9 15  1  0
  9 10  1  1
  9 11  1  0
 11 13  1  1
 12 11  1  0
 14 11  1  0
 15 16  2  0
 17 19  1  0
 17 15  1  0
 18 17  1  0
 19 20  1  1
 21 22  1  6
 21 23  1  0
 21 19  1  0
 24 21  1  0
 25 24  1  0
 26 28  1  0
 26 19  1  0
 27 26  2  0
 28 30  1  0
 29 28  1  0
 30 32  1  0
 30 31  1  1
 32 33  1  1
 32 35  1  0
 34 32  1  0
 36 37  2  0
 36 30  1  0
 38 36  1  0
 39 38  1  0
 40 41  1  1
 40 38  1  0
 42 40  1  0
 43 40  1  0
M  END
$$$$
