-69.01075031
     RDKit          3D

 43 42  0  0  1  0  0  0  0  0999 V2000
   -2.4033   -3.6724    2.5897 H   0  0  0  0  0  0  0  0  0  0  0  0
   -2.4758   -4.1992    1.6394 C   0  0  1  0  0  0  0  0  0  0  0  0
   -3.5240   -4.3715    1.4099 H   0  0  0  0  0  0  0  0  0  0  0  0
   -1.9570   -5.1489    1.7317 H   0  0  0  0  0  0  0  0  0  0  0  0
   -1.8121   -3.3708    0.5697 C   0  0  0  0  0  0  0  0  0  0  0  0
   -0.6951   -3.6054    0.1368 O   0  0  0  0  0  0  0  0  0  0  0  0
   -2.5498   -2.3358    0.1189 N   0  0  0  0  0  0  0  0  0  0  0  0
   -3.4064   -2.0917    0.5909 H   0  0  0  0  0  0  0  0  0  0  0  0
   -2.0299   -1.3678   -0.8368 C   0  0  1  0  0  0  0  0  0  0  0  0
   -1.5579   -1.9276   -1.6518 H   0  0  0  0  0  0  0  0  0  0  0  0
   -3.1535   -0.4874   -1.3565 C   0  0  2  0  0  0  0  0  0  0  0  0
   -2.7805    0.1514   -2.1525 H   0  0  0  0  0  0  0  0  0  0  0  0
   -3.5256    0.1449   -0.5530 H   0  0  0  0  0  0  0  0  0  0  0  0
   -3.9655   -1.0958   -1.7469 H   0  0  0  0  0  0  0  0  0  0  0  0
   -0.9654   -0.5330   -0.0992 C   0  0  0  0  0  0  0  0  0  0  0  0
   -1.2635    0.4581    0.5519 O   0  0  0  0  0  0  0  0  0  0  0  0
    0.2690   -1.0257   -0.1981 N   0  0  0  0  0  0  0  0  0  0  0  0
    0.4113   -1.8857   -0.7132 H   0  0  0  0  0  0  0  0  0  0  0  0
    1.4076   -0.5626    0.5732 C   0  0  1  0  0  0  0  0  0  0  0  0
    1.0297   -0.0028    1.4314 H   0  0  0  0  0  0  0  0  0  0  0  0
    2.2036   -1.7872    1.0645 C   0  0  1  0  0  0  0  0  0  0  0  0
    2.6329   -2.2951    0.1917 H   0  0  0  0  0  0  0  0  0  0  0  0
    3.0226   -1.4399    1.6991 H   0  0  0  0  0  0  0  0  0  0  0  0
    1.4321   -2.6537    1.8460 O   0  0  0  0  0  0  0  0  0  0  0  0
    0.7845   -3.1055    1.2796 H   0  0  0  0  0  0  0  0  0  0  0  0
    2.2997    0.2965   -0.3411 C   0  0  0  0  0  0  0  0  0  0  0  0
    3.0920   -0.2276   -1.0994 O   0  0  0  0  0  0  0  0  0  0  0  0
    2.1571    1.6303   -0.2879 N   0  0  0  0  0  0  0  0  0  0  0  0
    2.7454    2.1452   -0.9351 H   0  0  0  0  0  0  0  0  0  0  0  0
    1.2241    2.4701    0.4340 C   0  0  1  0  0  0  0  0  0  0  0  0
    0.5190    1.8557    0.9920 H   0  0  0  0  0  0  0  0  0  0  0  0
    1.9790    3.4119    1.3716 C   0  0  1  0  0  0  0  0  0  0  0  0
    2.5933    4.0917    0.7858 H   0  0  0  0  0  0  0  0  0  0  0  0
    1.2743    3.9972    1.9564 H   0  0  0  0  0  0  0  0  0  0  0  0
    2.6160    2.8444    2.0454 H   0  0  0  0  0  0  0  0  0  0  0  0
    0.4605    3.2998   -0.6185 C   0  0  0  0  0  0  0  0  0  0  0  0
    1.0309    4.1067   -1.3246 O   0  0  0  0  0  0  0  0  0  0  0  0
   -0.8541    3.0380   -0.6724 N   0  0  0  0  0  0  0  0  0  0  0  0
   -1.2334    2.2805   -0.1167 H   0  0  0  0  0  0  0  0  0  0  0  0
   -1.7331    3.6923   -1.6106 C   0  0  1  0  0  0  0  0  0  0  0  0
   -1.1564    4.4572   -2.1285 H   0  0  0  0  0  0  0  0  0  0  0  0
   -2.1239    2.9808   -2.3411 H   0  0  0  0  0  0  0  0  0  0  0  0
   -2.5683    4.1582   -1.0856 H   0  0  0  0  0  0  0  0  0  0  0  0
  2  4  1  1
  2  1  1  0
  3  2  1  0
  5  2  1  0
  6  5  2  0
  7  5  1  0
  7  8  1  0
  9 10  1  6
  9 15  1  0
  9  7  1  0
 11  9  1  0
 11 13  1  1
 12 11  1  0
 14 11  1  0
 15 16  2  0
 17 15  1  0
 17 19  1  0
 18 17  1  0
 19 21  1  0
 19 20  1  1
 21 23  1  1
 21 24  1  0
 22 21  1  0
 25 24  1  0
 26 28  1  0
 26 19  1  0
 27 26  2  0
 28 30  1  0
 29 28  1  0
 30 31  1  1
 30 32  1  0
 32 34  1  1
 32 35  1  0
 33 32  1  0
 36 30  1  0
 37 36  2  0
 38 36  1  0
 38 39  1  0
 40 43  1  1
 40 38  1  0
 41 40  1  0
 42 40  1  0
M  END
$$$$
