-69.00943414
     RDKit          3D

 43 42  0  0  1  0  0  0  0  0999 V2000
   -2.0104   -1.2707    2.4750 H   0  0  0  0  0  0  0  0  0  0  0  0
   -2.9635   -0.9497    2.0600 C   0  0  1  0  0  0  0  0  0  0  0  0
   -3.4221   -0.2207    2.7219 H   0  0  0  0  0  0  0  0  0  0  0  0
   -3.6148   -1.8178    1.9805 H   0  0  0  0  0  0  0  0  0  0  0  0
   -2.7700   -0.3254    0.7071 C   0  0  0  0  0  0  0  0  0  0  0  0
   -3.1374    0.8113    0.4396 O   0  0  0  0  0  0  0  0  0  0  0  0
   -2.1681   -1.0803   -0.2369 N   0  0  0  0  0  0  0  0  0  0  0  0
   -2.0374   -0.6300   -1.1338 H   0  0  0  0  0  0  0  0  0  0  0  0
   -1.4489   -2.3219   -0.0352 C   0  0  1  0  0  0  0  0  0  0  0  0
   -2.0109   -2.9562    0.6571 H   0  0  0  0  0  0  0  0  0  0  0  0
   -1.2772   -3.0518   -1.3629 C   0  0  2  0  0  0  0  0  0  0  0  0
   -0.7039   -2.4577   -2.0723 H   0  0  0  0  0  0  0  0  0  0  0  0
   -2.2506   -3.2698   -1.7970 H   0  0  0  0  0  0  0  0  0  0  0  0
   -0.7529   -3.9895   -1.1996 H   0  0  0  0  0  0  0  0  0  0  0  0
   -0.0780   -2.0408    0.6226 C   0  0  0  0  0  0  0  0  0  0  0  0
    0.2427   -2.5430    1.6775 O   0  0  0  0  0  0  0  0  0  0  0  0
    0.6664   -1.1434   -0.0496 N   0  0  0  0  0  0  0  0  0  0  0  0
    0.4208   -0.8846   -0.9993 H   0  0  0  0  0  0  0  0  0  0  0  0
    2.0537   -0.8799    0.2454 C   0  0  1  0  0  0  0  0  0  0  0  0
    2.4004   -1.6336    0.9626 H   0  0  0  0  0  0  0  0  0  0  0  0
    2.8387   -1.0294   -1.0843 C   0  0  1  0  0  0  0  0  0  0  0  0
    3.8313   -0.5840   -0.9613 H   0  0  0  0  0  0  0  0  0  0  0  0
    2.9489   -2.0894   -1.3283 H   0  0  0  0  0  0  0  0  0  0  0  0
    2.1308   -0.4652   -2.1558 O   0  0  0  0  0  0  0  0  0  0  0  0
    2.0554    0.4969   -2.0188 H   0  0  0  0  0  0  0  0  0  0  0  0
    2.4281    0.4695    0.8774 C   0  0  0  0  0  0  0  0  0  0  0  0
    3.6013    0.6609    1.1321 O   0  0  0  0  0  0  0  0  0  0  0  0
    1.5077    1.3988    1.2130 N   0  0  0  0  0  0  0  0  0  0  0  0
    1.9478    2.2443    1.5575 H   0  0  0  0  0  0  0  0  0  0  0  0
    0.1336    1.5636    0.8028 C   0  0  1  0  0  0  0  0  0  0  0  0
   -0.4212    0.6491    1.0279 H   0  0  0  0  0  0  0  0  0  0  0  0
   -0.4889    2.7227    1.5787 C   0  0  1  0  0  0  0  0  0  0  0  0
   -0.0344    3.6669    1.2858 H   0  0  0  0  0  0  0  0  0  0  0  0
   -1.5577    2.7704    1.3887 H   0  0  0  0  0  0  0  0  0  0  0  0
   -0.3357    2.5729    2.6450 H   0  0  0  0  0  0  0  0  0  0  0  0
    0.0751    1.8403   -0.7137 C   0  0  0  0  0  0  0  0  0  0  0  0
    1.0952    1.9629   -1.3735 O   0  0  0  0  0  0  0  0  0  0  0  0
   -1.1576    1.9072   -1.2254 N   0  0  0  0  0  0  0  0  0  0  0  0
   -1.9724    1.7537   -0.6306 H   0  0  0  0  0  0  0  0  0  0  0  0
   -1.4004    2.2311   -2.6120 C   0  0  1  0  0  0  0  0  0  0  0  0
   -1.9327    3.1799   -2.6938 H   0  0  0  0  0  0  0  0  0  0  0  0
   -0.4394    2.3125   -3.1178 H   0  0  0  0  0  0  0  0  0  0  0  0
   -1.9982    1.4522   -3.0881 H   0  0  0  0  0  0  0  0  0  0  0  0
  2  1  1  1
  2  3  1  0
  4  2  1  0
  5  2  1  0
  6  5  2  0
  7  9  1  0
  7  5  1  0
  8  7  1  0
  9 15  1  0
  9 10  1  1
 11 14  1  1
 11  9  1  0
 12 11  1  0
 13 11  1  0
 15 16  2  0
 17 19  1  0
 17 15  1  0
 18 17  1  0
 19 26  1  0
 19 20  1  1
 21 22  1  1
 21 19  1  0
 23 21  1  0
 24 25  1  0
 24 21  1  0
 26 27  2  0
 26 28  1  0
 28 29  1  0
 30 31  1  6
 30 28  1  0
 30 32  1  0
 32 35  1  1
 33 32  1  0
 34 32  1  0
 36 30  1  0
 37 36  2  0
 38 36  1  0
 38 39  1  0
 40 38  1  0
 40 41  1  1
 42 40  1  0
 43 40  1  0
M  END
$$$$
