Coordinates from ORCA-job xac
     RDKit          3D

 19 18  0  0  0  0  0  0  0  0999 V2000
    1.4650   -3.0650    1.1130 C   0  0  2  0  0  0  0  0  0  0  0  0
    2.4660   -2.6770    1.2970 H   0  0  0  0  0  0  0  0  0  0  0  0
    1.2500   -3.8680    1.8100 H   0  0  0  0  0  0  0  0  0  0  0  0
    1.4370   -3.5940   -0.2390 N   0  0  0  0  0  0  0  0  0  0  0  0
    0.8530   -4.3860   -0.4380 H   0  0  0  0  0  0  0  0  0  0  0  0
    0.4230   -1.9720    1.3350 C   0  0  0  0  0  0  0  0  0  0  0  0
   -0.5690   -2.1580    2.0310 O   0  0  0  0  0  0  0  0  0  0  0  0
    2.0730   -2.9720   -1.2610 C   0  0  0  0  0  0  0  0  0  0  0  0
    2.7050   -1.9280   -1.0990 O   0  0  0  0  0  0  0  0  0  0  0  0
    0.7110   -0.8160    0.6920 N   0  0  0  0  0  0  0  0  0  0  0  0
    1.5180   -0.8230    0.0810 H   0  0  0  0  0  0  0  0  0  0  0  0
   -0.1990    0.3070    0.7040 C   0  0  1  0  0  0  0  0  0  0  0  0
    0.3520    1.2340    0.8480 H   0  0  0  0  0  0  0  0  0  0  0  0
   -0.7690    0.3740   -0.2220 H   0  0  0  0  0  0  0  0  0  0  0  0
   -0.8900    0.1660    1.5290 H   0  0  0  0  0  0  0  0  0  0  0  0
    1.9760   -3.6440   -2.6060 C   0  0  2  0  0  0  0  0  0  0  0  0
    1.3800   -4.5530   -2.5920 H   0  0  0  0  0  0  0  0  0  0  0  0
    2.9820   -3.8800   -2.9440 H   0  0  0  0  0  0  0  0  0  0  0  0
    1.5470   -2.9400   -3.3150 H   0  0  0  0  0  0  0  0  0  0  0  0
  1  4  1  0
  1  2  1  1
  1  6  1  0
  1  3  1  0
  4  8  1  0
  4  5  1  0
  6 10  1  0
  6  7  1  0
  8 16  1  0
  8  9  1  0
 10 11  1  0
 10 12  1  0
 12 14  1  6
 12 13  1  0
 12 15  1  0
 16 19  1  6
 16 18  1  0
 16 17  1  0
M  END
$$$$
