Coordinates from ORCA-job xad
     RDKit          3D

 19 18  0  0  0  0  0  0  0  0999 V2000
    0.1080   -1.2520   -0.3360 C   0  0  2  0  0  0  0  0  0  0  0  0
    0.2530   -2.0320   -1.0790 H   0  0  0  0  0  0  0  0  0  0  0  0
   -0.1760   -1.7230    0.6040 H   0  0  0  0  0  0  0  0  0  0  0  0
   -0.9690   -0.3730   -0.7330 N   0  0  0  0  0  0  0  0  0  0  0  0
   -1.1500   -0.2360   -1.7120 H   0  0  0  0  0  0  0  0  0  0  0  0
    1.4630   -0.5940   -0.1060 C   0  0  0  0  0  0  0  0  0  0  0  0
    2.4610   -1.2870    0.0420 O   0  0  0  0  0  0  0  0  0  0  0  0
   -1.9050    0.0620    0.1680 C   0  0  0  0  0  0  0  0  0  0  0  0
   -1.7980   -0.1430    1.3670 O   0  0  0  0  0  0  0  0  0  0  0  0
    1.4560    0.7580   -0.0780 N   0  0  0  0  0  0  0  0  0  0  0  0
    0.5610    1.2120   -0.1270 H   0  0  0  0  0  0  0  0  0  0  0  0
    2.6410    1.5180    0.2560 C   0  0  2  0  0  0  0  0  0  0  0  0
    2.7610    2.3560   -0.4260 H   0  0  0  0  0  0  0  0  0  0  0  0
    3.4910    0.8500    0.1620 H   0  0  0  0  0  0  0  0  0  0  0  0
    2.6010    1.8910    1.2790 H   0  0  0  0  0  0  0  0  0  0  0  0
   -3.0730    0.8080   -0.4310 C   0  0  1  0  0  0  0  0  0  0  0  0
   -2.8960    1.1320   -1.4540 H   0  0  0  0  0  0  0  0  0  0  0  0
   -3.9440    0.1560   -0.4150 H   0  0  0  0  0  0  0  0  0  0  0  0
   -3.2920    1.6710    0.1920 H   0  0  0  0  0  0  0  0  0  0  0  0
  1  2  1  6
  1  4  1  0
  1  6  1  0
  1  3  1  0
  4  5  1  0
  4  8  1  0
  6 10  1  0
  6  7  1  0
  8 16  1  0
  8  9  1  0
 10 11  1  0
 10 12  1  0
 12 13  1  6
 12 14  1  0
 12 15  1  0
 16 17  1  6
 16 18  1  0
 16 19  1  0
M  END
$$$$
