Coordinates from ORCA-job xag
     RDKit          3D

 19 18  0  0  0  0  0  0  0  0999 V2000
    0.2120   -1.9760   -2.0070 C   0  0  1  0  0  0  0  0  0  0  0  0
    0.0400   -1.2450   -2.7950 H   0  0  0  0  0  0  0  0  0  0  0  0
   -0.1820   -2.9220   -2.3750 H   0  0  0  0  0  0  0  0  0  0  0  0
    1.6300   -2.0550   -1.7440 N   0  0  0  0  0  0  0  0  0  0  0  0
    2.2380   -1.3420   -2.1160 H   0  0  0  0  0  0  0  0  0  0  0  0
   -0.6710   -1.5670   -0.8300 C   0  0  0  0  0  0  0  0  0  0  0  0
   -1.8890   -1.6030   -0.9390 O   0  0  0  0  0  0  0  0  0  0  0  0
    2.2970   -3.1440   -1.2360 C   0  0  0  0  0  0  0  0  0  0  0  0
    3.5150   -3.1490   -1.1400 O   0  0  0  0  0  0  0  0  0  0  0  0
   -0.0060   -1.1780    0.2810 N   0  0  0  0  0  0  0  0  0  0  0  0
    0.9990   -1.1660    0.2330 H   0  0  0  0  0  0  0  0  0  0  0  0
   -0.6950   -0.7310    1.4720 C   0  0  1  0  0  0  0  0  0  0  0  0
   -0.5960    0.3440    1.6090 H   0  0  0  0  0  0  0  0  0  0  0  0
   -1.7460   -0.9730    1.3490 H   0  0  0  0  0  0  0  0  0  0  0  0
   -0.3060   -1.2400    2.3510 H   0  0  0  0  0  0  0  0  0  0  0  0
    1.4320   -4.3020   -0.8040 C   0  0  2  0  0  0  0  0  0  0  0  0
    0.6090   -3.9760   -0.1710 H   0  0  0  0  0  0  0  0  0  0  0  0
    2.0560   -5.0060   -0.2660 H   0  0  0  0  0  0  0  0  0  0  0  0
    1.0070   -4.8000   -1.6750 H   0  0  0  0  0  0  0  0  0  0  0  0
  1  2  1  6
  1  3  1  0
  1  4  1  0
  1  6  1  0
  4  5  1  0
  4  8  1  0
  6  7  1  0
  6 10  1  0
  8  9  1  0
  8 16  1  0
 10 11  1  0
 10 12  1  0
 12 14  1  6
 12 13  1  0
 12 15  1  0
 16 19  1  6
 16 18  1  0
 16 17  1  0
M  END
$$$$
