-50.00362017
     RDKit          3D

 33 34  0  0  0  0  0  0  0  0999 V2000
   -0.5417   -2.6292   -0.4806 N   0  0  0  0  0  0  0  0  0  0  0  0
   -1.3155   -1.9034    0.3832 C   0  0  0  0  0  0  0  0  0  0  0  0
   -0.6144   -0.8336    0.8626 C   0  0  0  0  0  0  0  0  0  0  0  0
    0.6785   -0.8947    0.2565 C   0  0  0  0  0  0  0  0  0  0  0  0
    1.8171   -0.0889    0.3501 C   0  0  0  0  0  0  0  0  0  0  0  0
    2.9265   -0.4347   -0.3947 C   0  0  0  0  0  0  0  0  0  0  0  0
    2.9148   -1.5752   -1.2212 C   0  0  0  0  0  0  0  0  0  0  0  0
    1.8085   -2.3830   -1.3191 C   0  0  0  0  0  0  0  0  0  0  0  0
    0.6861   -2.0361   -0.5759 C   0  0  0  0  0  0  0  0  0  0  0  0
   -0.8178   -3.4790   -0.9411 H   0  0  0  0  0  0  0  0  0  0  0  0
   -2.3215   -2.2056    0.6057 H   0  0  0  0  0  0  0  0  0  0  0  0
    1.8101    0.7721    0.9987 H   0  0  0  0  0  0  0  0  0  0  0  0
    3.8126   -1.7945   -1.7764 H   0  0  0  0  0  0  0  0  0  0  0  0
    1.8125   -3.2572   -1.9527 H   0  0  0  0  0  0  0  0  0  0  0  0
    4.1038    0.2640   -0.4112 O   0  0  0  0  0  0  0  0  0  0  0  0
    4.1959    1.4298    0.3667 C   0  0  2  0  0  0  0  0  0  0  0  0
    4.0734    1.2144    1.4336 H   0  0  0  0  0  0  0  0  0  0  0  0
    3.4559    2.1777    0.0612 H   0  0  0  0  0  0  0  0  0  0  0  0
    5.1961    1.8237    0.1930 H   0  0  0  0  0  0  0  0  0  0  0  0
   -1.1140    0.2228    1.7928 C   0  0  2  0  0  0  0  0  0  0  0  0
   -1.3033    1.5614    1.0632 C   0  0  2  0  0  0  0  0  0  0  0  0
   -2.2185    1.4318   -0.0446 N   0  0  0  0  0  0  0  0  0  0  0  0
   -3.4171    2.0554   -0.0961 C   0  0  0  0  0  0  0  0  0  0  0  0
   -4.2242    1.7010   -1.3305 C   0  0  2  0  0  0  0  0  0  0  0  0
   -0.4032    0.3704    2.6085 H   0  0  0  0  0  0  0  0  0  0  0  0
   -2.0685   -0.0902    2.2190 H   0  0  0  0  0  0  0  0  0  0  0  0
   -0.3387    1.9192    0.6889 H   0  0  0  0  0  0  0  0  0  0  0  0
   -1.7287    2.3078    1.7369 H   0  0  0  0  0  0  0  0  0  0  0  0
   -1.9780    0.7469   -0.7441 H   0  0  0  0  0  0  0  0  0  0  0  0
   -3.7949    2.8338    0.7526 O   0  0  0  0  0  0  0  0  0  0  0  0
   -3.6606    1.9463   -2.2279 H   0  0  0  0  0  0  0  0  0  0  0  0
   -5.1532    2.2629   -1.3247 H   0  0  0  0  0  0  0  0  0  0  0  0
   -4.4484    0.6365   -1.3371 H   0  0  0  0  0  0  0  0  0  0  0  0
  1  2  1  0
  2 11  1  0
  2  3  2  0
  3 20  1  0
  4  5  1  0
  4  3  1  0
  5 12  1  0
  6  5  2  0
  7  6  1  0
  8  7  2  0
  8  9  1  0
  9  1  1  0
  9  4  2  0
 10  1  1  0
 13  7  1  0
 14  8  1  0
 15  6  1  0
 15 16  1  0
 16 17  1  1
 18 16  1  0
 19 16  1  0
 20 26  1  1
 20 25  1  0
 21 28  1  1
 21 20  1  0
 22 21  1  0
 23 22  1  0
 23 30  2  0
 24 32  1  6
 24 23  1  0
 27 21  1  0
 29 22  1  0
 31 24  1  0
 33 24  1  0
M  END
$$$$
