-50.00276709
     RDKit          3D

 33 34  0  0  0  0  0  0  0  0999 V2000
   -0.4461   -2.5028   -0.5060 N   0  0  0  0  0  0  0  0  0  0  0  0
   -1.2999   -1.8123    0.3123 C   0  0  0  0  0  0  0  0  0  0  0  0
   -0.6691   -0.7303    0.8541 C   0  0  0  0  0  0  0  0  0  0  0  0
    0.6658   -0.7417    0.3399 C   0  0  0  0  0  0  0  0  0  0  0  0
    1.7703    0.0844    0.5182 C   0  0  0  0  0  0  0  0  0  0  0  0
    2.9491   -0.2180   -0.1456 C   0  0  0  0  0  0  0  0  0  0  0  0
    3.0319   -1.3405   -0.9821 C   0  0  0  0  0  0  0  0  0  0  0  0
    1.9475   -2.1741   -1.1671 C   0  0  0  0  0  0  0  0  0  0  0  0
    0.7676   -1.8726   -0.5063 C   0  0  0  0  0  0  0  0  0  0  0  0
   -0.6637   -3.3538   -0.9943 H   0  0  0  0  0  0  0  0  0  0  0  0
   -2.3089   -2.1492    0.4598 H   0  0  0  0  0  0  0  0  0  0  0  0
    1.7372    0.9489    1.1612 H   0  0  0  0  0  0  0  0  0  0  0  0
    3.9526   -1.5705   -1.4938 H   0  0  0  0  0  0  0  0  0  0  0  0
    2.0240   -3.0381   -1.8107 H   0  0  0  0  0  0  0  0  0  0  0  0
    3.9878    0.6470    0.0796 O   0  0  0  0  0  0  0  0  0  0  0  0
    5.2173    0.4102   -0.5561 C   0  0  2  0  0  0  0  0  0  0  0  0
    5.8754    1.2149   -0.2311 H   0  0  0  0  0  0  0  0  0  0  0  0
    5.1229    0.4424   -1.6471 H   0  0  0  0  0  0  0  0  0  0  0  0
    5.6503   -0.5506   -0.2572 H   0  0  0  0  0  0  0  0  0  0  0  0
   -1.2608    0.2990    1.7591 C   0  0  2  0  0  0  0  0  0  0  0  0
   -1.5066    1.6184    1.0099 C   0  0  2  0  0  0  0  0  0  0  0  0
   -2.3924    1.4292   -0.1139 N   0  0  0  0  0  0  0  0  0  0  0  0
   -3.6698    1.8735   -0.1335 C   0  0  0  0  0  0  0  0  0  0  0  0
   -4.4310    1.4553   -1.3776 C   0  0  2  0  0  0  0  0  0  0  0  0
   -0.5842    0.4951    2.5927 H   0  0  0  0  0  0  0  0  0  0  0  0
   -2.2088   -0.0653    2.1582 H   0  0  0  0  0  0  0  0  0  0  0  0
   -0.5558    2.0221    0.6494 H   0  0  0  0  0  0  0  0  0  0  0  0
   -1.9855    2.3448    1.6692 H   0  0  0  0  0  0  0  0  0  0  0  0
   -2.0743    0.7959   -0.8306 H   0  0  0  0  0  0  0  0  0  0  0  0
   -4.1476    2.5560    0.7466 O   0  0  0  0  0  0  0  0  0  0  0  0
   -3.9040    1.7872   -2.2691 H   0  0  0  0  0  0  0  0  0  0  0  0
   -5.4214    1.8997   -1.3579 H   0  0  0  0  0  0  0  0  0  0  0  0
   -4.5256    0.3718   -1.4086 H   0  0  0  0  0  0  0  0  0  0  0  0
  1  2  1  0
  2 11  1  0
  2  3  2  0
  3 20  1  0
  4  5  1  0
  4  3  1  0
  5 12  1  0
  6 15  1  0
  6  5  2  0
  7  6  1  0
  8  7  2  0
  8  9  1  0
  9  1  1  0
  9  4  2  0
 10  1  1  0
 13  7  1  0
 14  8  1  0
 16 19  1  6
 16 17  1  0
 16 15  1  0
 18 16  1  0
 20 26  1  1
 20 25  1  0
 21 28  1  1
 21 20  1  0
 22 21  1  0
 23 22  1  0
 23 30  2  0
 24 32  1  1
 24 23  1  0
 27 21  1  0
 29 22  1  0
 31 24  1  0
 33 24  1  0
M  END
$$$$
