-50.00179818
     RDKit          3D

 33 34  0  0  0  0  0  0  0  0999 V2000
   -0.5110   -2.4923   -0.9573 N   0  0  0  0  0  0  0  0  0  0  0  0
   -1.3464   -1.8495   -0.0843 C   0  0  0  0  0  0  0  0  0  0  0  0
   -0.6654   -0.8770    0.5931 C   0  0  0  0  0  0  0  0  0  0  0  0
    0.6811   -0.9242    0.1154 C   0  0  0  0  0  0  0  0  0  0  0  0
    1.8311   -0.1940    0.4299 C   0  0  0  0  0  0  0  0  0  0  0  0
    3.0039   -0.5049   -0.2280 C   0  0  0  0  0  0  0  0  0  0  0  0
    3.0408   -1.5294   -1.1942 C   0  0  0  0  0  0  0  0  0  0  0  0
    1.9216   -2.2569   -1.5159 C   0  0  0  0  0  0  0  0  0  0  0  0
    0.7386   -1.9506   -0.8530 C   0  0  0  0  0  0  0  0  0  0  0  0
   -0.7689   -3.2578   -1.5555 H   0  0  0  0  0  0  0  0  0  0  0  0
   -2.3770   -2.1406   -0.0123 H   0  0  0  0  0  0  0  0  0  0  0  0
    1.7826    0.5849    1.1736 H   0  0  0  0  0  0  0  0  0  0  0  0
    3.9865   -1.7249   -1.6737 H   0  0  0  0  0  0  0  0  0  0  0  0
    1.9618   -3.0420   -2.2560 H   0  0  0  0  0  0  0  0  0  0  0  0
    4.2048    0.1191   -0.0211 O   0  0  0  0  0  0  0  0  0  0  0  0
    4.2682    1.1368    0.9449 C   0  0  2  0  0  0  0  0  0  0  0  0
    4.0017    0.7648    1.9400 H   0  0  0  0  0  0  0  0  0  0  0  0
    3.6174    1.9794    0.6872 H   0  0  0  0  0  0  0  0  0  0  0  0
    5.3039    1.4733    0.9528 H   0  0  0  0  0  0  0  0  0  0  0  0
   -1.1892    0.0601    1.6370 C   0  0  2  0  0  0  0  0  0  0  0  0
   -2.6419    0.4732    1.3879 C   0  0  2  0  0  0  0  0  0  0  0  0
   -2.7905    1.1224    0.1069 N   0  0  0  0  0  0  0  0  0  0  0  0
   -3.2138    2.3997   -0.0307 C   0  0  0  0  0  0  0  0  0  0  0  0
   -3.1935    2.8874   -1.4665 C   0  0  2  0  0  0  0  0  0  0  0  0
   -0.5642    0.9552    1.6536 H   0  0  0  0  0  0  0  0  0  0  0  0
   -1.1246   -0.4078    2.6239 H   0  0  0  0  0  0  0  0  0  0  0  0
   -2.9684    1.1935    2.1412 H   0  0  0  0  0  0  0  0  0  0  0  0
   -3.2959   -0.4042    1.4341 H   0  0  0  0  0  0  0  0  0  0  0  0
   -2.4206    0.6273   -0.6897 H   0  0  0  0  0  0  0  0  0  0  0  0
   -3.5899    3.0752    0.9028 O   0  0  0  0  0  0  0  0  0  0  0  0
   -3.8168    2.2480   -2.0875 H   0  0  0  0  0  0  0  0  0  0  0  0
   -2.1766    2.8682   -1.8528 H   0  0  0  0  0  0  0  0  0  0  0  0
   -3.5725    3.9042   -1.5046 H   0  0  0  0  0  0  0  0  0  0  0  0
  1  9  1  0
  1  2  1  0
  2 11  1  0
  2  3  2  0
  3 20  1  0
  4  5  1  0
  4  3  1  0
  5 12  1  0
  6 15  1  0
  6  5  2  0
  7  6  1  0
  8  7  2  0
  8  9  1  0
  9  4  2  0
 10  1  1  0
 13  7  1  0
 14  8  1  0
 15 16  1  0
 16 19  1  1
 16 17  1  0
 18 16  1  0
 20 25  1  1
 20 26  1  0
 21 28  1  6
 21 20  1  0
 21 27  1  0
 22 21  1  0
 23 22  1  0
 23 30  2  0
 24 23  1  0
 29 22  1  0
 24 31  1  6
 32 24  1  0
 33 24  1  0
M  END
$$$$
