-50.00476097
     RDKit          3D

 33 34  0  0  0  0  0  0  0  0999 V2000
   -0.3219   -3.2167   -0.0310 N   0  0  0  0  0  0  0  0  0  0  0  0
   -1.4833   -2.6558   -0.4901 C   0  0  0  0  0  0  0  0  0  0  0  0
   -1.2947   -1.3338   -0.7712 C   0  0  0  0  0  0  0  0  0  0  0  0
    0.0739   -1.0499   -0.4677 C   0  0  0  0  0  0  0  0  0  0  0  0
    0.8549    0.0993   -0.5482 C   0  0  0  0  0  0  0  0  0  0  0  0
    2.1800    0.0403   -0.1469 C   0  0  0  0  0  0  0  0  0  0  0  0
    2.7343   -1.1619    0.3163 C   0  0  0  0  0  0  0  0  0  0  0  0
    1.9796   -2.3157    0.3853 C   0  0  0  0  0  0  0  0  0  0  0  0
    0.6509   -2.2573   -0.0042 C   0  0  0  0  0  0  0  0  0  0  0  0
   -0.2005   -4.1809    0.2255 H   0  0  0  0  0  0  0  0  0  0  0  0
   -2.3735   -3.2474   -0.5903 H   0  0  0  0  0  0  0  0  0  0  0  0
    0.4580    1.0298   -0.9215 H   0  0  0  0  0  0  0  0  0  0  0  0
    3.7672   -1.2011    0.6227 H   0  0  0  0  0  0  0  0  0  0  0  0
    2.4201   -3.2372    0.7364 H   0  0  0  0  0  0  0  0  0  0  0  0
    2.8701    1.2220   -0.2314 O   0  0  0  0  0  0  0  0  0  0  0  0
    4.2317    1.2382    0.1130 C   0  0  2  0  0  0  0  0  0  0  0  0
    4.8169    0.5605   -0.5174 H   0  0  0  0  0  0  0  0  0  0  0  0
    4.3865    0.9798    1.1663 H   0  0  0  0  0  0  0  0  0  0  0  0
    4.5647    2.2613   -0.0561 H   0  0  0  0  0  0  0  0  0  0  0  0
   -2.3169   -0.3483   -1.2321 C   0  0  2  0  0  0  0  0  0  0  0  0
   -2.9405    0.4059   -0.0443 C   0  0  2  0  0  0  0  0  0  0  0  0
   -1.9570    1.1545    0.6991 N   0  0  0  0  0  0  0  0  0  0  0  0
   -1.8698    2.5050    0.6498 C   0  0  0  0  0  0  0  0  0  0  0  0
   -0.6727    3.0556    1.3990 C   0  0  2  0  0  0  0  0  0  0  0  0
   -3.1136   -0.8628   -1.7712 H   0  0  0  0  0  0  0  0  0  0  0  0
   -1.8537    0.3765   -1.9033 H   0  0  0  0  0  0  0  0  0  0  0  0
   -3.4305   -0.3085    0.6261 H   0  0  0  0  0  0  0  0  0  0  0  0
   -3.6767    1.1282   -0.4035 H   0  0  0  0  0  0  0  0  0  0  0  0
   -1.1903    0.6285    1.0890 H   0  0  0  0  0  0  0  0  0  0  0  0
   -2.6882    3.1997    0.0861 O   0  0  0  0  0  0  0  0  0  0  0  0
    0.2503    2.7002    0.9453 H   0  0  0  0  0  0  0  0  0  0  0  0
   -0.6992    2.7284    2.4360 H   0  0  0  0  0  0  0  0  0  0  0  0
   -0.6954    4.1406    1.3629 H   0  0  0  0  0  0  0  0  0  0  0  0
  1  9  1  0
  1 10  1  0
  2  1  1  0
  3  2  2  0
  3  4  1  0
  4  9  1  0
  5  4  2  0
  5  6  1  0
  6  7  2  0
  7  8  1  0
  7 13  1  0
  8 14  1  0
  9  8  2  0
 11  2  1  0
 12  5  1  0
 15  6  1  0
 15 16  1  0
 16 18  1  1
 17 16  1  0
 19 16  1  0
 20  3  1  0
 20 21  1  0
 21 27  1  1
 21 22  1  0
 22 29  1  0
 23 22  1  0
 23 24  1  0
 24 32  1  1
 20 25  1  6
 26 20  1  0
 28 21  1  0
 30 23  2  0
 31 24  1  0
 33 24  1  0
M  END
$$$$
