-50.00439666
     RDKit          3D

 33 34  0  0  0  0  0  0  0  0999 V2000
   -0.3299   -3.3987   -0.6466 N   0  0  0  0  0  0  0  0  0  0  0  0
   -1.4894   -2.7478   -0.3204 C   0  0  0  0  0  0  0  0  0  0  0  0
   -1.2172   -1.4643    0.0524 C   0  0  0  0  0  0  0  0  0  0  0  0
    0.1986   -1.3012   -0.0523 C   0  0  0  0  0  0  0  0  0  0  0  0
    1.0460   -0.2176    0.1905 C   0  0  0  0  0  0  0  0  0  0  0  0
    2.3984   -0.3905   -0.0269 C   0  0  0  0  0  0  0  0  0  0  0  0
    2.9060   -1.6288   -0.4674 C   0  0  0  0  0  0  0  0  0  0  0  0
    2.0845   -2.7054   -0.7021 C   0  0  0  0  0  0  0  0  0  0  0  0
    0.7206   -2.5355   -0.4937 C   0  0  0  0  0  0  0  0  0  0  0  0
   -0.2618   -4.3558   -0.9455 H   0  0  0  0  0  0  0  0  0  0  0  0
   -2.4344   -3.2551   -0.3719 H   0  0  0  0  0  0  0  0  0  0  0  0
    0.6378    0.7220    0.5245 H   0  0  0  0  0  0  0  0  0  0  0  0
    3.9714   -1.7044   -0.6173 H   0  0  0  0  0  0  0  0  0  0  0  0
    2.4878   -3.6490   -1.0392 H   0  0  0  0  0  0  0  0  0  0  0  0
    3.3402    0.5843    0.1528 O   0  0  0  0  0  0  0  0  0  0  0  0
    2.9042    1.8431    0.6103 C   0  0  2  0  0  0  0  0  0  0  0  0
    3.7942    2.4701    0.6401 H   0  0  0  0  0  0  0  0  0  0  0  0
    2.4746    1.7750    1.6150 H   0  0  0  0  0  0  0  0  0  0  0  0
    2.1646    2.2889   -0.0607 H   0  0  0  0  0  0  0  0  0  0  0  0
   -2.1647   -0.3886    0.4645 C   0  0  2  0  0  0  0  0  0  0  0  0
   -2.2235    0.7172   -0.6049 C   0  0  2  0  0  0  0  0  0  0  0  0
   -2.7148    1.9697   -0.0778 N   0  0  0  0  0  0  0  0  0  0  0  0
   -1.8796    2.9324    0.3786 C   0  0  0  0  0  0  0  0  0  0  0  0
   -2.5980    4.1228    0.9818 C   0  0  2  0  0  0  0  0  0  0  0  0
   -1.8060    0.0615    1.3943 H   0  0  0  0  0  0  0  0  0  0  0  0
   -3.1599   -0.8016    0.6411 H   0  0  0  0  0  0  0  0  0  0  0  0
   -2.8533    0.4059   -1.4419 H   0  0  0  0  0  0  0  0  0  0  0  0
   -1.2142    0.9098   -0.9733 H   0  0  0  0  0  0  0  0  0  0  0  0
   -3.7017    2.0477    0.1084 H   0  0  0  0  0  0  0  0  0  0  0  0
   -0.6721    2.8529    0.2930 O   0  0  0  0  0  0  0  0  0  0  0  0
   -3.1337    3.8180    1.8787 H   0  0  0  0  0  0  0  0  0  0  0  0
   -3.3104    4.5335    0.2701 H   0  0  0  0  0  0  0  0  0  0  0  0
   -1.8705    4.8850    1.2445 H   0  0  0  0  0  0  0  0  0  0  0  0
  1  9  1  0
  1  2  1  0
  2  3  2  0
  3 20  1  0
  4  3  1  0
  4  5  2  0
  5 12  1  0
  6 15  1  0
  6  5  1  0
  7  6  2  0
  8  9  2  0
  8  7  1  0
  9  4  1  0
 10  1  1  0
 11  2  1  0
 13  7  1  0
 14  8  1  0
 15 16  1  0
 16 17  1  1
 16 18  1  0
 19 16  1  0
 20 26  1  1
 20 25  1  0
 21 22  1  0
 21 20  1  0
 22 29  1  0
 22 23  1  0
 23 24  1  0
 24 33  1  1
 24 31  1  0
 21 27  1  6
 28 21  1  0
 30 23  2  0
 32 24  1  0
M  END
$$$$
