PCONF21/412/struc.xyz
     RDKit          3D

 37 37  0  0  0  0  0  0  0  0999 V2000
    3.6420    0.0080    0.5190 O   0  0  0  0  0  0  0  0  0  0  0  0
    2.5910   -0.5530    0.3200 C   0  0  0  0  0  0  0  0  0  0  0  0
    1.4810   -0.3400    1.0580 O   0  0  0  0  0  0  0  0  0  0  0  0
    1.7310    0.3650    1.6780 H   0  0  0  0  0  0  0  0  0  0  0  0
    2.3900   -1.5630   -0.7940 C   0  0  0  0  0  0  0  0  0  0  0  0
    3.0910   -2.3740   -0.6030 H   0  0  0  0  0  0  0  0  0  0  0  0
    2.6870   -1.0770   -1.7210 H   0  0  0  0  0  0  0  0  0  0  0  0
    1.0650   -2.0980   -0.9180 N   0  0  0  0  0  0  0  0  0  0  0  0
    0.3510   -1.5750   -1.4120 H   0  0  0  0  0  0  0  0  0  0  0  0
    0.6390   -3.0280   -0.0180 C   0  0  0  0  0  0  0  0  0  0  0  0
    1.3830   -3.6110    0.7570 O   0  0  0  0  0  0  0  0  0  0  0  0
   -0.8680   -3.2430   -0.0380 C   0  0  0  0  0  0  0  0  0  0  0  0
   -1.0990   -4.0800    0.6120 H   0  0  0  0  0  0  0  0  0  0  0  0
   -1.2110   -3.4530   -1.0510 H   0  0  0  0  0  0  0  0  0  0  0  0
   -1.5560   -2.0590    0.4340 N   0  0  0  0  0  0  0  0  0  0  0  0
   -1.6850   -1.8850    1.4220 H   0  0  0  0  0  0  0  0  0  0  0  0
   -1.8250   -1.0210   -0.3770 C   0  0  0  0  0  0  0  0  0  0  0  0
   -1.5800   -1.0190   -1.5870 O   0  0  0  0  0  0  0  0  0  0  0  0
   -2.5100    0.1560    0.3160 C   0  0  1  0  0  0  0  0  0  0  0  0
   -2.1890    0.1400    1.7410 N   0  0  0  0  0  0  0  0  0  0  0  0
   -1.2570    0.5190    1.8750 H   0  0  0  0  0  0  0  0  0  0  0  0
   -2.8260    0.7400    2.2500 H   0  0  0  0  0  0  0  0  0  0  0  0
   -3.5830   -0.0390    0.2260 H   0  0  0  0  0  0  0  0  0  0  0  0
   -2.2140    1.4690   -0.4270 C   0  0  0  0  0  0  0  0  0  0  0  0
   -2.5060    1.3410   -1.4690 H   0  0  0  0  0  0  0  0  0  0  0  0
   -2.8500    2.2440    0.0070 H   0  0  0  0  0  0  0  0  0  0  0  0
   -0.7760    1.8950   -0.3460 C   0  0  0  0  0  0  0  0  0  0  0  0
   -0.3060    2.6190    0.7570 C   0  0  0  0  0  0  0  0  0  0  0  0
   -0.9990    2.9120    1.5360 H   0  0  0  0  0  0  0  0  0  0  0  0
    1.0320    3.0090    0.8440 C   0  0  0  0  0  0  0  0  0  0  0  0
    1.3720    3.5780    1.7000 H   0  0  0  0  0  0  0  0  0  0  0  0
    1.9200    2.6890   -0.1800 C   0  0  0  0  0  0  0  0  0  0  0  0
    2.9570    2.9850   -0.1160 H   0  0  0  0  0  0  0  0  0  0  0  0
    1.4590    1.9850   -1.2920 C   0  0  0  0  0  0  0  0  0  0  0  0
    2.1390    1.7520   -2.1010 H   0  0  0  0  0  0  0  0  0  0  0  0
    0.1270    1.5840   -1.3700 C   0  0  0  0  0  0  0  0  0  0  0  0
   -0.2310    1.0380   -2.2320 H   0  0  0  0  0  0  0  0  0  0  0  0
  1  2  2  0
  2  5  1  0
  2  3  1  0
  3  4  1  0
  5  7  1  0
  5  8  1  0
  5  6  1  0
  8  9  1  0
  8 10  1  0
 10 12  1  0
 10 11  2  0
 12 14  1  0
 12 15  1  0
 12 13  1  0
 15 17  1  0
 15 16  1  0
 17 18  2  0
 17 19  1  0
 19 24  1  0
 19 23  1  1
 19 20  1  0
 20 21  1  0
 20 22  1  0
 24 25  1  0
 24 27  1  0
 24 26  1  0
 27 36  2  0
 27 28  1  0
 28 30  2  0
 28 29  1  0
 30 32  1  0
 30 31  1  0
 32 34  2  0
 32 33  1  0
 34 35  1  0
 34 36  1  0
 36 37  1  0
M  END
$$$$
