Coordinates from ORCA-job xar
     RDKit          3D

 28 27  0  0  0  0  0  0  0  0999 V2000
    1.2540   -1.1920    0.3480 N   0  0  0  0  0  0  0  0  0  0  0  0
    1.0180   -1.6260    1.2250 H   0  0  0  0  0  0  0  0  0  0  0  0
    0.2990   -0.2650   -0.2430 C   0  0  1  0  0  0  0  0  0  0  0  0
    0.4570   -0.3080   -1.3220 H   0  0  0  0  0  0  0  0  0  0  0  0
   -1.1130   -0.6920    0.1090 C   0  0  2  0  0  0  0  0  0  0  0  0
    0.6000    1.1560    0.2510 C   0  0  0  0  0  0  0  0  0  0  0  0
   -1.2560   -0.6090    1.1860 H   0  0  0  0  0  0  0  0  0  0  0  0
   -1.2360   -1.7380   -0.1770 H   0  0  0  0  0  0  0  0  0  0  0  0
   -2.1490    0.1730   -0.6020 C   0  0  2  0  0  0  0  0  0  0  0  0
   -0.0570    1.6930    1.1390 O   0  0  0  0  0  0  0  0  0  0  0  0
   -1.9800    0.1930   -1.6770 H   0  0  0  0  0  0  0  0  0  0  0  0
   -2.0790    1.1910   -0.2180 H   0  0  0  0  0  0  0  0  0  0  0  0
   -3.5570   -0.3030   -0.3890 C   0  0  0  0  0  0  0  0  0  0  0  0
   -3.8120   -0.5400    0.9220 O   0  0  0  0  0  0  0  0  0  0  0  0
   -4.3910   -0.4580   -1.2510 O   0  0  0  0  0  0  0  0  0  0  0  0
    2.4910   -1.3810   -0.1760 C   0  0  0  0  0  0  0  0  0  0  0  0
    3.3570   -2.3920    0.5300 C   0  0  2  0  0  0  0  0  0  0  0  0
    2.8780   -0.7790   -1.1780 O   0  0  0  0  0  0  0  0  0  0  0  0
    4.2930   -1.9130    0.8050 H   0  0  0  0  0  0  0  0  0  0  0  0
    3.5880   -3.1930   -0.1690 H   0  0  0  0  0  0  0  0  0  0  0  0
    2.8910   -2.8140    1.4160 H   0  0  0  0  0  0  0  0  0  0  0  0
    1.6530    1.7280   -0.3710 N   0  0  0  0  0  0  0  0  0  0  0  0
    2.1700    3.0070    0.0650 C   0  0  1  0  0  0  0  0  0  0  0  0
    2.2180    1.1200   -0.9520 H   0  0  0  0  0  0  0  0  0  0  0  0
    2.8770    2.9020    0.8880 H   0  0  0  0  0  0  0  0  0  0  0  0
    2.6650    3.5000   -0.7680 H   0  0  0  0  0  0  0  0  0  0  0  0
    1.3390    3.6160    0.4050 H   0  0  0  0  0  0  0  0  0  0  0  0
   -4.7400   -0.8170    0.9550 H   0  0  0  0  0  0  0  0  0  0  0  0
  1  3  1  0
  1 16  1  0
  1  2  1  0
  3  4  1  6
  3  5  1  0
  3  6  1  0
  5  9  1  0
  5  8  1  6
  5  7  1  0
  6 22  1  0
  6 10  1  0
  9 11  1  6
  9 13  1  0
  9 12  1  0
 13 15  1  0
 13 14  1  0
 14 28  1  0
 16 18  1  0
 16 17  1  0
 17 20  1  6
 17 19  1  0
 17 21  1  0
 22 24  1  0
 22 23  1  0
 23 26  1  6
 23 27  1  0
 23 25  1  0
M  END
$$$$
