Coordinates from ORCA-job xad
     RDKit          3D

 28 27  0  0  0  0  0  0  0  0999 V2000
    0.6470   -0.9230   -0.3160 N   0  0  0  0  0  0  0  0  0  0  0  0
    0.2490   -1.0140   -1.2350 H   0  0  0  0  0  0  0  0  0  0  0  0
   -0.2590   -0.8680    0.8200 C   0  0  1  0  0  0  0  0  0  0  0  0
   -0.1240   -1.7570    1.4350 H   0  0  0  0  0  0  0  0  0  0  0  0
    0.0270    0.3500    1.7080 C   0  0  2  0  0  0  0  0  0  0  0  0
   -1.7150   -0.8740    0.3750 C   0  0  0  0  0  0  0  0  0  0  0  0
    1.0730    0.3020    2.0050 H   0  0  0  0  0  0  0  0  0  0  0  0
   -0.5830    0.2560    2.6070 H   0  0  0  0  0  0  0  0  0  0  0  0
   -0.2790    1.7050    1.0600 C   0  0  1  0  0  0  0  0  0  0  0  0
   -2.5770   -1.3970    1.0700 O   0  0  0  0  0  0  0  0  0  0  0  0
   -1.3400    1.8020    0.8380 H   0  0  0  0  0  0  0  0  0  0  0  0
    0.0010    2.4920    1.7580 H   0  0  0  0  0  0  0  0  0  0  0  0
    0.4800    1.9310   -0.2160 C   0  0  0  0  0  0  0  0  0  0  0  0
    1.7780    2.2020    0.0120 O   0  0  0  0  0  0  0  0  0  0  0  0
    0.0120    1.8900   -1.3390 O   0  0  0  0  0  0  0  0  0  0  0  0
    1.9570   -1.2740   -0.1450 C   0  0  0  0  0  0  0  0  0  0  0  0
    2.7390   -1.4560   -1.4240 C   0  0  2  0  0  0  0  0  0  0  0  0
    2.4580   -1.4220    0.9610 O   0  0  0  0  0  0  0  0  0  0  0  0
    2.9000   -2.5200   -1.5880 H   0  0  0  0  0  0  0  0  0  0  0  0
    3.7120   -0.9890   -1.3030 H   0  0  0  0  0  0  0  0  0  0  0  0
    2.2340   -1.0350   -2.2920 H   0  0  0  0  0  0  0  0  0  0  0  0
   -1.9890   -0.2670   -0.8130 N   0  0  0  0  0  0  0  0  0  0  0  0
   -3.3780   -0.1330   -1.2150 C   0  0  1  0  0  0  0  0  0  0  0  0
   -1.3380    0.4300   -1.1570 H   0  0  0  0  0  0  0  0  0  0  0  0
   -3.9360    0.5120   -0.5360 H   0  0  0  0  0  0  0  0  0  0  0  0
   -3.4120    0.2800   -2.2180 H   0  0  0  0  0  0  0  0  0  0  0  0
   -3.8510   -1.1110   -1.2090 H   0  0  0  0  0  0  0  0  0  0  0  0
    2.1860    2.3090   -0.8610 H   0  0  0  0  0  0  0  0  0  0  0  0
  1  2  1  0
  1 16  1  0
  1  3  1  0
  3  6  1  0
  3  4  1  1
  3  5  1  0
  5  9  1  0
  5  7  1  1
  5  8  1  0
  6 22  1  0
  6 10  1  0
  9 13  1  0
  9 11  1  6
  9 12  1  0
 13 15  1  0
 13 14  1  0
 14 28  1  0
 16 17  1  0
 16 18  1  0
 17 21  1  6
 17 19  1  0
 17 20  1  0
 22 23  1  0
 22 24  1  0
 23 26  1  6
 23 27  1  0
 23 25  1  0
M  END
$$$$
