PCONF21/GLY_ab/struc.xyz
     RDKit          3D

 39 38  0  0  0  0  0  0  0  0999 V2000
   -7.5540    0.6690    1.0660 H   0  0  0  0  0  0  0  0  0  0  0  0
   -6.7370    1.0570    0.4580 C   0  0  1  0  0  0  0  0  0  0  0  0
   -6.3850    2.0020    0.8850 H   0  0  0  0  0  0  0  0  0  0  0  0
   -7.1060    1.2650   -0.5520 H   0  0  0  0  0  0  0  0  0  0  0  0
   -5.6210    0.0220    0.4270 C   0  0  0  0  0  0  0  0  0  0  0  0
   -5.6990   -1.0570    1.0050 O   0  0  0  0  0  0  0  0  0  0  0  0
   -4.5240    0.3890   -0.3000 N   0  0  0  0  0  0  0  0  0  0  0  0
   -4.4550    1.3030   -0.7270 H   0  0  0  0  0  0  0  0  0  0  0  0
   -3.3360   -0.4450   -0.3990 C   0  0  1  0  0  0  0  0  0  0  0  0
   -3.3610   -1.1250    0.4580 H   0  0  0  0  0  0  0  0  0  0  0  0
   -3.3050   -1.2650   -1.7000 C   0  0  1  0  0  0  0  0  0  0  0  0
   -3.2960   -0.5970   -2.5660 H   0  0  0  0  0  0  0  0  0  0  0  0
   -2.4130   -1.8990   -1.7400 H   0  0  0  0  0  0  0  0  0  0  0  0
   -4.1890   -1.9040   -1.7490 H   0  0  0  0  0  0  0  0  0  0  0  0
   -2.1260    0.4930   -0.3310 C   0  0  0  0  0  0  0  0  0  0  0  0
   -2.1000    1.5350   -0.9860 O   0  0  0  0  0  0  0  0  0  0  0  0
   -1.1140    0.0960    0.4820 N   0  0  0  0  0  0  0  0  0  0  0  0
   -1.1660   -0.7710    0.9990 H   0  0  0  0  0  0  0  0  0  0  0  0
    0.1350    0.8250    0.5890 C   0  0  1  0  0  0  0  0  0  0  0  0
    0.2080    1.4960   -0.2700 H   0  0  0  0  0  0  0  0  0  0  0  0
    0.1590    1.4390    1.5000 H   0  0  0  0  0  0  0  0  0  0  0  0
    1.2790   -0.1870    0.6690 C   0  0  0  0  0  0  0  0  0  0  0  0
    1.1790   -1.1810    1.3870 O   0  0  0  0  0  0  0  0  0  0  0  0
    2.3580    0.0750   -0.1050 N   0  0  0  0  0  0  0  0  0  0  0  0
    2.4130    0.9130   -0.6710 H   0  0  0  0  0  0  0  0  0  0  0  0
    3.5580   -0.7520   -0.0870 C   0  0  1  0  0  0  0  0  0  0  0  0
    3.5470   -1.3010    0.8590 H   0  0  0  0  0  0  0  0  0  0  0  0
    3.5870   -1.7470   -1.2580 C   0  0  1  0  0  0  0  0  0  0  0  0
    3.5840   -1.2100   -2.2100 H   0  0  0  0  0  0  0  0  0  0  0  0
    4.4840   -2.3720   -1.2160 H   0  0  0  0  0  0  0  0  0  0  0  0
    2.7080   -2.3960   -1.2100 H   0  0  0  0  0  0  0  0  0  0  0  0
    4.7540    0.2090   -0.1710 C   0  0  0  0  0  0  0  0  0  0  0  0
    4.7520    1.1400   -0.9720 O   0  0  0  0  0  0  0  0  0  0  0  0
    5.7820   -0.0340    0.6780 N   0  0  0  0  0  0  0  0  0  0  0  0
    5.7100   -0.7950    1.3350 H   0  0  0  0  0  0  0  0  0  0  0  0
    6.9830    0.7880    0.6650 C   0  0  1  0  0  0  0  0  0  0  0  0
    6.7370    1.8360    0.8650 H   0  0  0  0  0  0  0  0  0  0  0  0
    7.6680    0.4260    1.4330 H   0  0  0  0  0  0  0  0  0  0  0  0
    7.4780    0.7400   -0.3100 H   0  0  0  0  0  0  0  0  0  0  0  0
  2  1  1  1
  2  4  1  0
  2  5  1  0
  2  3  1  0
  5  7  1  0
  5  6  1  0
  7  8  1  0
  7  9  1  0
  9 11  1  0
  9 15  1  0
  9 10  1  1
 11 12  1  6
 11 14  1  0
 11 13  1  0
 15 16  1  0
 15 17  1  0
 17 19  1  0
 17 18  1  0
 19 20  1  6
 19 22  1  0
 19 21  1  0
 22 24  1  0
 22 23  1  0
 24 25  1  0
 24 26  1  0
 26 28  1  0
 26 32  1  0
 26 27  1  1
 28 29  1  6
 28 30  1  0
 28 31  1  0
 32 33  1  0
 32 34  1  0
 34 36  1  0
 34 35  1  0
 36 39  1  6
 36 37  1  0
 36 38  1  0
M  END
$$$$
