ICONF/H4P2O7_3/struc.xyz
     RDKit          3D

 13 12  0  0  0  0  0  0  0  0999 V2000
   -1.3240    0.9650    0.8820 O   0  0  0  0  0  0  0  0  0  0  0  0
   -1.5540   -0.1530   -0.2800 P   0  0  0  0  0  0  0  0  0  0  0  0
   -2.6920    0.0790   -1.1640 O   0  0  0  0  0  0  0  0  0  0  0  0
   -0.0870    0.0070   -0.9850 O   0  0  0  0  0  0  0  0  0  0  0  0
    1.2810   -0.2200   -0.1440 P   0  0  0  0  0  0  0  0  0  0  0  0
    1.1620   -1.3530    0.7950 O   0  0  0  0  0  0  0  0  0  0  0  0
    2.4050   -0.4140   -1.2350 O   0  0  0  0  0  0  0  0  0  0  0  0
    1.6150    1.2180    0.4570 O   0  0  0  0  0  0  0  0  0  0  0  0
   -1.5040   -1.5630    0.4260 O   0  0  0  0  0  0  0  0  0  0  0  0
   -2.1610    1.2400    1.2920 H   0  0  0  0  0  0  0  0  0  0  0  0
    2.5800    0.3780   -1.7730 H   0  0  0  0  0  0  0  0  0  0  0  0
    0.8580    1.5630    0.9710 H   0  0  0  0  0  0  0  0  0  0  0  0
   -0.5780   -1.7450    0.7600 H   0  0  0  0  0  0  0  0  0  0  0  0
  1  2  1  0
  1 10  1  0
  2  3  1  0
  2  4  1  0
  2  9  1  0
  4  5  1  0
  5  7  1  0
  5  8  1  0
  5  6  1  0
  7 11  1  0
  8 12  1  0
  9 13  1  0
M  END
$$$$
