SCONF/C3/struc.xyz
     RDKit          3D

 26 26  0  0  0  0  0  0  0  0999 V2000
    2.8130   -0.3640    0.6010 C   0  0  1  0  0  0  0  0  0  0  0  0
    1.5470   -0.5280   -0.2320 C   0  0  1  0  0  0  0  0  0  0  0  0
    0.2760   -0.3300    0.5940 C   0  0  2  0  0  0  0  0  0  0  0  0
   -1.0230   -0.2990   -0.2470 C   0  0  2  0  0  0  0  0  0  0  0  0
   -1.4350    1.1950   -0.2050 C   0  0  2  0  0  0  0  0  0  0  0  0
   -0.8760    1.9360   -1.2770 O   0  0  0  0  0  0  0  0  0  0  0  0
   -0.8960    1.6130    1.1630 C   0  0  1  0  0  0  0  0  0  0  0  0
    3.9100   -0.4990   -0.3180 O   0  0  0  0  0  0  0  0  0  0  0  0
   -1.9700   -1.1470    0.3980 O   0  0  0  0  0  0  0  0  0  0  0  0
    1.5520    0.4110   -1.3120 O   0  0  0  0  0  0  0  0  0  0  0  0
    0.3540    0.9200    1.2970 O   0  0  0  0  0  0  0  0  0  0  0  0
   -3.0800   -1.4990   -0.4160 C   0  0  1  0  0  0  0  0  0  0  0  0
    2.8140    0.6230    1.0740 H   0  0  0  0  0  0  0  0  0  0  0  0
    2.8560   -1.1420    1.3750 H   0  0  0  0  0  0  0  0  0  0  0  0
    1.5280   -1.5490   -0.6440 H   0  0  0  0  0  0  0  0  0  0  0  0
    0.1960   -1.1560    1.3150 H   0  0  0  0  0  0  0  0  0  0  0  0
   -0.8620   -0.6280   -1.2820 H   0  0  0  0  0  0  0  0  0  0  0  0
   -2.5190    1.3170   -0.2730 H   0  0  0  0  0  0  0  0  0  0  0  0
    0.0570    1.6730   -1.3810 H   0  0  0  0  0  0  0  0  0  0  0  0
   -0.6970    2.6850    1.2280 H   0  0  0  0  0  0  0  0  0  0  0  0
   -1.5860    1.3110    1.9650 H   0  0  0  0  0  0  0  0  0  0  0  0
    4.7180   -0.1700    0.0930 H   0  0  0  0  0  0  0  0  0  0  0  0
    2.4570    0.4400   -1.6600 H   0  0  0  0  0  0  0  0  0  0  0  0
   -3.6760   -0.6230   -0.7080 H   0  0  0  0  0  0  0  0  0  0  0  0
   -2.7520   -2.0210   -1.3270 H   0  0  0  0  0  0  0  0  0  0  0  0
   -3.7040   -2.1700    0.1780 H   0  0  0  0  0  0  0  0  0  0  0  0
  1  8  1  0
  1  2  1  0
  1 13  1  1
  1 14  1  0
  2 10  1  0
  2 15  1  6
  2  3  1  0
  3  4  1  0
  3 11  1  0
  3 16  1  1
  4 17  1  6
  4  5  1  0
  4  9  1  0
  5  6  1  0
  5 18  1  1
  5  7  1  0
  6 19  1  0
  7 20  1  6
  7 11  1  0
  7 21  1  0
  8 22  1  0
  9 12  1  0
 10 23  1  0
 12 25  1  6
 12 24  1  0
 12 26  1  0
M  END
$$$$
