SCONF/C13/struc.xyz
     RDKit          3D

 26 26  0  0  0  0  0  0  0  0999 V2000
    2.6770    0.7720    0.0320 C   0  0  2  0  0  0  0  0  0  0  0  0
    1.9370   -0.5400    0.3240 C   0  0  1  0  0  0  0  0  0  0  0  0
    0.6160   -0.6870   -0.4450 C   0  0  2  0  0  0  0  0  0  0  0  0
   -0.5670    0.1660    0.0460 C   0  0  2  0  0  0  0  0  0  0  0  0
   -1.7730   -0.7490   -0.1960 C   0  0  2  0  0  0  0  0  0  0  0  0
   -2.8570   -0.3850    0.6540 O   0  0  0  0  0  0  0  0  0  0  0  0
   -1.1770   -2.1270    0.1150 C   0  0  2  0  0  0  0  0  0  0  0  0
    1.9900    1.9250    0.4990 O   0  0  0  0  0  0  0  0  0  0  0  0
   -0.5740    1.3980   -0.6640 O   0  0  0  0  0  0  0  0  0  0  0  0
    2.8280   -1.5810   -0.0640 O   0  0  0  0  0  0  0  0  0  0  0  0
    0.1830   -2.0640   -0.3290 O   0  0  0  0  0  0  0  0  0  0  0  0
   -1.5130    2.3650   -0.1780 C   0  0  1  0  0  0  0  0  0  0  0  0
    2.8840    0.8330   -1.0460 H   0  0  0  0  0  0  0  0  0  0  0  0
    3.6380    0.7400    0.5520 H   0  0  0  0  0  0  0  0  0  0  0  0
    1.7250   -0.6000    1.4040 H   0  0  0  0  0  0  0  0  0  0  0  0
    0.7940   -0.4780   -1.5090 H   0  0  0  0  0  0  0  0  0  0  0  0
   -0.4950    0.3630    1.1270 H   0  0  0  0  0  0  0  0  0  0  0  0
   -2.0650   -0.6770   -1.2530 H   0  0  0  0  0  0  0  0  0  0  0  0
   -3.6390   -0.9020    0.4210 H   0  0  0  0  0  0  0  0  0  0  0  0
   -1.6700   -2.9510   -0.4110 H   0  0  0  0  0  0  0  0  0  0  0  0
   -1.2280   -2.3140    1.1980 H   0  0  0  0  0  0  0  0  0  0  0  0
    1.1900    2.0360   -0.0410 H   0  0  0  0  0  0  0  0  0  0  0  0
    2.3260   -2.4090   -0.0490 H   0  0  0  0  0  0  0  0  0  0  0  0
   -2.5430    2.0170   -0.3030 H   0  0  0  0  0  0  0  0  0  0  0  0
   -1.3350    2.5800    0.8840 H   0  0  0  0  0  0  0  0  0  0  0  0
   -1.3510    3.2690   -0.7680 H   0  0  0  0  0  0  0  0  0  0  0  0
  1 13  1  6
  1  2  1  0
  1  8  1  0
  1 14  1  0
  2  3  1  0
  2 10  1  0
  2 15  1  1
  3 16  1  6
  3 11  1  0
  3  4  1  0
  4  9  1  0
  4  5  1  0
  4 17  1  1
  5 18  1  6
  5  7  1  0
  5  6  1  0
  6 19  1  0
  7 20  1  6
  7 11  1  0
  7 21  1  0
  8 22  1  0
  9 12  1  0
 10 23  1  0
 12 26  1  6
 12 24  1  0
 12 25  1  0
M  END
$$$$
