-31.32755240
     RDKit          3D

 16 15  0  0  1  0  0  0  0  0999 V2000
   -0.2167    1.5128   -0.7247 N   0  0  0  0  0  0  0  0  0  0  0  0
   -0.3916    0.0766   -0.5428 C   0  0  2  0  0  0  0  0  0  0  0  0
   -1.8326   -0.3579   -0.2816 C   0  0  0  0  0  0  0  0  0  0  0  0
   -2.2659   -1.4558   -0.4885 O   0  0  0  0  0  0  0  0  0  0  0  0
   -2.5669    0.6315    0.2462 O   0  0  0  0  0  0  0  0  0  0  0  0
    0.4485   -0.3976    0.6568 C   0  0  2  0  0  0  0  0  0  0  0  0
    1.9577   -0.2015    0.4573 C   0  0  0  0  0  0  0  0  0  0  0  0
    2.7566   -0.9893    0.8760 O   0  0  0  0  0  0  0  0  0  0  0  0
    2.3103    0.9080   -0.1753 O   0  0  0  0  0  0  0  0  0  0  0  0
   -0.0469   -0.4406   -1.4454 H   0  0  0  0  0  0  0  0  0  0  0  0
    0.2677   -1.4550    0.8500 H   0  0  0  0  0  0  0  0  0  0  0  0
    0.1618    0.1690    1.5478 H   0  0  0  0  0  0  0  0  0  0  0  0
   -0.6264    1.8249   -1.5977 H   0  0  0  0  0  0  0  0  0  0  0  0
   -0.6717    2.0168    0.0308 H   0  0  0  0  0  0  0  0  0  0  0  0
   -3.4655    0.3210    0.4386 H   0  0  0  0  0  0  0  0  0  0  0  0
    1.5079    1.4072   -0.4803 H   0  0  0  0  0  0  0  0  0  0  0  0
  1  2  1  0
  1 14  1  0
  2 10  1  6
  2  3  1  0
  2  6  1  0
  3  5  1  0
  4  3  2  0
  5 15  1  0
  6 11  1  1
  6 12  1  0
  7  6  1  0
  7  8  2  0
  9  7  1  0
 13  1  1  0
 16  9  1  0
M  END
$$$$
