-31.32344697
     RDKit          3D

 16 15  0  0  1  0  0  0  0  0999 V2000
   -1.2023    2.0526   -0.1592 N   0  0  0  0  0  0  0  0  0  0  0  0
   -0.5206    0.7855   -0.3396 C   0  0  2  0  0  0  0  0  0  0  0  0
   -1.5050   -0.4015   -0.3160 C   0  0  0  0  0  0  0  0  0  0  0  0
   -2.6548   -0.2613   -0.0081 O   0  0  0  0  0  0  0  0  0  0  0  0
   -0.9984   -1.5888   -0.6510 O   0  0  0  0  0  0  0  0  0  0  0  0
    0.5241    0.6394    0.7863 C   0  0  2  0  0  0  0  0  0  0  0  0
    1.7928   -0.0923    0.4413 C   0  0  0  0  0  0  0  0  0  0  0  0
    2.8103   -0.0312    1.0681 O   0  0  0  0  0  0  0  0  0  0  0  0
    1.6921   -0.8660   -0.6660 O   0  0  0  0  0  0  0  0  0  0  0  0
   -0.0135    0.8083   -1.3120 H   0  0  0  0  0  0  0  0  0  0  0  0
    0.0826    0.1413    1.6551 H   0  0  0  0  0  0  0  0  0  0  0  0
    0.8069    1.6438    1.1105 H   0  0  0  0  0  0  0  0  0  0  0  0
   -1.8030    1.9968    0.6587 H   0  0  0  0  0  0  0  0  0  0  0  0
   -1.8090    2.2408   -0.9500 H   0  0  0  0  0  0  0  0  0  0  0  0
   -0.0466   -1.5339   -0.8482 H   0  0  0  0  0  0  0  0  0  0  0  0
    2.5400   -1.3065   -0.8390 H   0  0  0  0  0  0  0  0  0  0  0  0
  1 13  1  0
  2 10  1  6
  2  3  1  0
  2  1  1  0
  2  6  1  0
  3  4  2  0
  5  3  1  0
  6 12  1  1
  6 11  1  0
  7  6  1  0
  7  8  2  0
  9  7  1  0
 14  1  1  0
 15  5  1  0
 16  9  1  0
M  END
$$$$
