-31.33087424
     RDKit          3D

 16 15  0  0  1  0  0  0  0  0999 V2000
   -0.9581    1.7219    0.5158 N   0  0  0  0  0  0  0  0  0  0  0  0
   -0.6667    0.8518   -0.6104 C   0  0  2  0  0  0  0  0  0  0  0  0
   -1.3202   -0.5203   -0.3259 C   0  0  0  0  0  0  0  0  0  0  0  0
   -1.0023   -1.5248   -0.8957 O   0  0  0  0  0  0  0  0  0  0  0  0
   -2.2739   -0.4619    0.5901 O   0  0  0  0  0  0  0  0  0  0  0  0
    0.8250    0.6477   -0.9414 C   0  0  2  0  0  0  0  0  0  0  0  0
    1.5448   -0.0039    0.2156 C   0  0  0  0  0  0  0  0  0  0  0  0
    1.3481    0.2448    1.3790 O   0  0  0  0  0  0  0  0  0  0  0  0
    2.4478   -0.8877   -0.1902 O   0  0  0  0  0  0  0  0  0  0  0  0
   -1.1691    1.2530   -1.5004 H   0  0  0  0  0  0  0  0  0  0  0  0
    1.2975    1.6122   -1.1437 H   0  0  0  0  0  0  0  0  0  0  0  0
    0.9282    0.0086   -1.8171 H   0  0  0  0  0  0  0  0  0  0  0  0
   -0.8005    2.6958    0.2851 H   0  0  0  0  0  0  0  0  0  0  0  0
   -0.3392    1.4800    1.2885 H   0  0  0  0  0  0  0  0  0  0  0  0
   -2.2977    0.4572    0.9406 H   0  0  0  0  0  0  0  0  0  0  0  0
    2.8816   -1.3181    0.5644 H   0  0  0  0  0  0  0  0  0  0  0  0
  1 14  1  0
  2 10  1  6
  2  3  1  0
  2  1  1  0
  3  5  1  0
  4  3  2  0
  5 15  1  0
  6  2  1  0
  6  7  1  0
  7  8  2  0
  9  7  1  0
  9 16  1  0
  6 11  1  6
 12  6  1  0
 13  1  1  0
M  END
$$$$
