-91.99419347
     RDKit          3D

 56 59  0  0  0  0  0  0  0  0999 V2000
   -3.2663   -2.6180   -0.6414 C   0  0  1  0  0  0  0  0  0  0  0  0
   -3.6942   -2.2472    0.6966 N   0  0  0  0  0  0  0  0  0  0  0  0
   -3.0735   -3.0987    1.6930 C   0  0  1  0  0  0  0  0  0  0  0  0
   -5.1487   -2.2601    0.8239 C   0  0  1  0  0  0  0  0  0  0  0  0
   -5.8301   -1.0593    0.1631 C   0  0  1  0  0  0  0  0  0  0  0  0
   -5.4316    0.2598    0.8288 C   0  0  1  0  0  0  0  0  0  0  0  0
   -4.0328    0.5863    0.6256 N   0  0  0  0  0  0  0  0  0  0  0  0
   -3.7002    1.2780   -0.8660 S   0  0  1  0  0  0  0  0  0  0  0  0
   -3.6806    0.2858   -1.9152 O   0  0  0  0  0  0  0  0  0  0  0  0
   -4.5851    2.3927   -1.0363 O   0  0  0  0  0  0  0  0  0  0  0  0
   -2.0374    1.8307   -0.5561 C   0  0  0  0  0  0  0  0  0  0  0  0
   -1.0181    0.8977   -0.5708 C   0  0  0  0  0  0  0  0  0  0  0  0
    0.2763    1.2726   -0.2688 C   0  0  0  0  0  0  0  0  0  0  0  0
    0.5503    2.6063    0.0427 C   0  0  0  0  0  0  0  0  0  0  0  0
   -0.4905    3.5423    0.0467 C   0  0  0  0  0  0  0  0  0  0  0  0
   -1.7824    3.1524   -0.2449 C   0  0  0  0  0  0  0  0  0  0  0  0
    1.8213    3.0574    0.3461 N   0  0  0  0  0  0  0  0  0  0  0  0
    3.0116    2.4029    0.4287 C   0  0  0  0  0  0  0  0  0  0  0  0
    4.0432    3.2089    0.7176 N   0  0  0  0  0  0  0  0  0  0  0  0
    5.2306    2.6403    0.8103 C   0  0  0  0  0  0  0  0  0  0  0  0
    5.4282    1.2828    0.6270 C   0  0  0  0  0  0  0  0  0  0  0  0
    4.2876    0.5240    0.3361 C   0  0  0  0  0  0  0  0  0  0  0  0
    3.0877    1.0924    0.2374 N   0  0  0  0  0  0  0  0  0  0  0  0
    4.3738   -0.9033    0.1327 C   0  0  0  0  0  0  0  0  0  0  0  0
    5.4918   -1.7302    0.0326 C   0  0  0  0  0  0  0  0  0  0  0  0
    5.1548   -3.0062   -0.1608 N   0  0  0  0  0  0  0  0  0  0  0  0
    3.8302   -3.0302   -0.1864 C   0  0  0  0  0  0  0  0  0  0  0  0
    3.3104   -1.7470   -0.0112 N   0  0  0  0  0  0  0  0  0  0  0  0
    2.0261   -1.4628    0.0200 N   0  0  0  0  0  0  0  0  0  0  0  0
    1.1974   -2.4535   -0.1294 C   0  0  0  0  0  0  0  0  0  0  0  0
    1.5914   -3.7938   -0.3208 C   0  0  0  0  0  0  0  0  0  0  0  0
    2.9298   -4.0879   -0.3498 C   0  0  0  0  0  0  0  0  0  0  0  0
   -3.6624   -3.5982   -0.9475 H   0  0  0  0  0  0  0  0  0  0  0  0
   -3.5867   -1.8626   -1.3559 H   0  0  0  0  0  0  0  0  0  0  0  0
   -2.1778   -2.6673   -0.6656 H   0  0  0  0  0  0  0  0  0  0  0  0
   -1.9899   -3.0206    1.6057 H   0  0  0  0  0  0  0  0  0  0  0  0
   -3.3609   -2.7615    2.6881 H   0  0  0  0  0  0  0  0  0  0  0  0
   -3.3567   -4.1570    1.5856 H   0  0  0  0  0  0  0  0  0  0  0  0
   -5.5687   -3.1919    0.4052 H   0  0  0  0  0  0  0  0  0  0  0  0
   -5.3856   -2.2396    1.8919 H   0  0  0  0  0  0  0  0  0  0  0  0
   -5.5750   -1.0052   -0.8949 H   0  0  0  0  0  0  0  0  0  0  0  0
   -6.9104   -1.1917    0.2477 H   0  0  0  0  0  0  0  0  0  0  0  0
   -6.0052    1.0892    0.4101 H   0  0  0  0  0  0  0  0  0  0  0  0
   -5.6138    0.2120    1.9077 H   0  0  0  0  0  0  0  0  0  0  0  0
   -3.4769   -0.2595    0.7532 H   0  0  0  0  0  0  0  0  0  0  0  0
   -1.2543   -0.1195   -0.8388 H   0  0  0  0  0  0  0  0  0  0  0  0
    1.0771    0.5522   -0.2604 H   0  0  0  0  0  0  0  0  0  0  0  0
   -0.2777    4.5751    0.2828 H   0  0  0  0  0  0  0  0  0  0  0  0
   -2.6015    3.8532   -0.2452 H   0  0  0  0  0  0  0  0  0  0  0  0
    1.9153    4.0489    0.5279 H   0  0  0  0  0  0  0  0  0  0  0  0
    6.0515    3.3065    1.0430 H   0  0  0  0  0  0  0  0  0  0  0  0
    6.4026    0.8361    0.7120 H   0  0  0  0  0  0  0  0  0  0  0  0
    6.5253   -1.4491    0.0852 H   0  0  0  0  0  0  0  0  0  0  0  0
    0.1554   -2.1738   -0.0956 H   0  0  0  0  0  0  0  0  0  0  0  0
    0.8452   -4.5619   -0.4411 H   0  0  0  0  0  0  0  0  0  0  0  0
    3.3119   -5.0857   -0.4898 H   0  0  0  0  0  0  0  0  0  0  0  0
  1  2  1  0
  2  4  1  0
  2  3  1  0
  3 37  1  1
  4 40  1  1
  5 42  1  6
  5  4  1  0
  5  6  1  0
  6 44  1  1
  7 45  1  0
  7  6  1  0
  8 11  1  0
  8  7  1  1
  9  8  2  0
 10  8  2  0
 11 16  1  0
 12 11  2  0
 12 13  1  0
 13 47  1  0
 13 14  2  0
 14 15  1  0
 14 17  1  0
 15 48  1  0
 16 15  2  0
 17 18  1  0
 17 50  1  0
 18 19  2  0
 19 20  1  0
 20 51  1  0
 21 52  1  0
 21 20  2  0
 22 21  1  0
 23 22  2  0
 23 18  1  0
 24 22  1  0
 25 53  1  0
 25 24  2  0
 26 25  1  0
 27 26  2  0
 27 28  1  0
 28 29  1  0
 28 24  1  0
 30 54  1  0
 30 29  2  0
 31 30  1  0
 32 31  2  0
 32 27  1  0
  1 33  1  6
 34  1  1  0
 35  1  1  0
 36  3  1  0
 38  3  1  0
 39  4  1  0
 41  5  1  0
 43  6  1  0
 46 12  1  0
 49 16  1  0
 55 31  1  0
 56 32  1  0
M  END
$$$$
