-91.99417990
     RDKit          3D

 56 59  0  0  0  0  0  0  0  0999 V2000
   -4.1088   -2.3412   -2.4372 C   0  0  1  0  0  0  0  0  0  0  0  0
   -4.5784   -1.6629   -1.2446 N   0  0  0  0  0  0  0  0  0  0  0  0
   -4.0950   -2.3281   -0.0466 C   0  0  1  0  0  0  0  0  0  0  0  0
   -6.0318   -1.5289   -1.2477 C   0  0  1  0  0  0  0  0  0  0  0  0
   -6.5381   -0.4097   -0.3343 C   0  0  1  0  0  0  0  0  0  0  0  0
   -6.0114    0.9598   -0.7692 C   0  0  1  0  0  0  0  0  0  0  0  0
   -4.5791    1.0914   -0.5739 N   0  0  0  0  0  0  0  0  0  0  0  0
   -4.1403    1.4397    1.0056 S   0  0  1  0  0  0  0  0  0  0  0  0
   -4.8933    2.5881    1.4184 O   0  0  0  0  0  0  0  0  0  0  0  0
   -4.2035    0.2707    1.8499 O   0  0  0  0  0  0  0  0  0  0  0  0
   -2.4334    1.8768    0.7471 C   0  0  0  0  0  0  0  0  0  0  0  0
   -1.4702    0.8860    0.7605 C   0  0  0  0  0  0  0  0  0  0  0  0
   -0.1487    1.2030    0.5133 C   0  0  0  0  0  0  0  0  0  0  0  0
    0.2112    2.5264    0.2499 C   0  0  0  0  0  0  0  0  0  0  0  0
   -0.7760    3.5188    0.2471 C   0  0  0  0  0  0  0  0  0  0  0  0
   -2.0942    3.1920    0.4913 C   0  0  0  0  0  0  0  0  0  0  0  0
    1.5144    2.9124    0.0010 N   0  0  0  0  0  0  0  0  0  0  0  0
    2.6593    2.1831   -0.1116 C   0  0  0  0  0  0  0  0  0  0  0  0
    3.7518    2.9335   -0.3137 N   0  0  0  0  0  0  0  0  0  0  0  0
    4.8976    2.2896   -0.4273 C   0  0  0  0  0  0  0  0  0  0  0  0
    4.9976    0.9096   -0.3519 C   0  0  0  0  0  0  0  0  0  0  0  0
    3.8006    0.2162   -0.1535 C   0  0  0  0  0  0  0  0  0  0  0  0
    2.6366    0.8603   -0.0325 N   0  0  0  0  0  0  0  0  0  0  0  0
    3.7183   -1.2227   -0.0731 C   0  0  0  0  0  0  0  0  0  0  0  0
    2.5848   -2.0272    0.0412 C   0  0  0  0  0  0  0  0  0  0  0  0
    2.8949   -3.3232    0.0824 N   0  0  0  0  0  0  0  0  0  0  0  0
    4.2155   -3.3824   -0.0006 C   0  0  0  0  0  0  0  0  0  0  0  0
    4.7620   -2.0997   -0.1015 N   0  0  0  0  0  0  0  0  0  0  0  0
    6.0546   -1.8465   -0.1989 N   0  0  0  0  0  0  0  0  0  0  0  0
    6.8582   -2.8707   -0.1985 C   0  0  0  0  0  0  0  0  0  0  0  0
    6.4337   -4.2107   -0.1018 C   0  0  0  0  0  0  0  0  0  0  0  0
    5.0914   -4.4715   -0.0016 C   0  0  0  0  0  0  0  0  0  0  0  0
   -3.0203   -2.3815   -2.4179 H   0  0  0  0  0  0  0  0  0  0  0  0
   -4.4939   -3.3687   -2.5221 H   0  0  0  0  0  0  0  0  0  0  0  0
   -4.4169   -1.7800   -3.3187 H   0  0  0  0  0  0  0  0  0  0  0  0
   -3.0134   -2.4386   -0.1170 H   0  0  0  0  0  0  0  0  0  0  0  0
   -4.3199   -1.7232    0.8294 H   0  0  0  0  0  0  0  0  0  0  0  0
   -4.5390   -3.3269    0.0807 H   0  0  0  0  0  0  0  0  0  0  0  0
   -6.3393   -1.2960   -2.2717 H   0  0  0  0  0  0  0  0  0  0  0  0
   -6.5148   -2.4798   -0.9610 H   0  0  0  0  0  0  0  0  0  0  0  0
   -7.6291   -0.4050   -0.3718 H   0  0  0  0  0  0  0  0  0  0  0  0
   -6.2330   -0.5862    0.6969 H   0  0  0  0  0  0  0  0  0  0  0  0
   -6.2239    1.1310   -1.8297 H   0  0  0  0  0  0  0  0  0  0  0  0
   -6.4766    1.7542   -0.1820 H   0  0  0  0  0  0  0  0  0  0  0  0
   -4.1296    0.2301   -0.8886 H   0  0  0  0  0  0  0  0  0  0  0  0
   -1.7700   -0.1255    0.9840 H   0  0  0  0  0  0  0  0  0  0  0  0
    0.6211    0.4510    0.5230 H   0  0  0  0  0  0  0  0  0  0  0  0
   -0.4986    4.5448    0.0527 H   0  0  0  0  0  0  0  0  0  0  0  0
   -2.8722    3.9380    0.4993 H   0  0  0  0  0  0  0  0  0  0  0  0
    1.6767    3.9048   -0.1138 H   0  0  0  0  0  0  0  0  0  0  0  0
    5.7692    2.9115   -0.5869 H   0  0  0  0  0  0  0  0  0  0  0  0
    5.9372    0.3954   -0.4435 H   0  0  0  0  0  0  0  0  0  0  0  0
    1.5658   -1.6996    0.0879 H   0  0  0  0  0  0  0  0  0  0  0  0
    7.9053   -2.6210   -0.2797 H   0  0  0  0  0  0  0  0  0  0  0  0
    7.1620   -5.0046   -0.1077 H   0  0  0  0  0  0  0  0  0  0  0  0
    4.6890   -5.4680    0.0763 H   0  0  0  0  0  0  0  0  0  0  0  0
  1 33  1  1
  1  2  1  0
  2  3  1  0
  3 38  1  1
  3 37  1  0
  4  2  1  0
  4 40  1  1
  4  5  1  0
  5 42  1  1
  6  7  1  0
  6  5  1  0
  6 44  1  1
  8  7  1  6
  8  9  2  0
  8 10  2  0
 11 12  1  0
 11  8  1  0
 12 46  1  0
 13 47  1  0
 13 12  2  0
 14 13  1  0
 15 14  2  0
 15 16  1  0
 16 49  1  0
 16 11  2  0
 17 14  1  0
 18 23  1  0
 18 17  1  0
 19 18  2  0
 20 21  2  0
 20 19  1  0
 21 22  1  0
 22 24  1  0
 22 23  2  0
 24 25  2  0
 25 26  1  0
 25 53  1  0
 27 26  2  0
 28 24  1  0
 28 27  1  0
 29 30  2  0
 29 28  1  0
 30 31  1  0
 31 32  2  0
 32 27  1  0
 32 56  1  0
 34  1  1  0
 35  1  1  0
 36  3  1  0
 39  4  1  0
 41  5  1  0
 43  6  1  0
 45  7  1  0
 48 15  1  0
 50 17  1  0
 51 20  1  0
 52 21  1  0
 54 30  1  0
 55 31  1  0
M  END
$$$$
