-91.99384969
     RDKit          3D

 56 59  0  0  0  0  0  0  0  0999 V2000
   -3.7969   -1.4407    0.5036 C   0  0  1  0  0  0  0  0  0  0  0  0
   -5.1613   -1.0383    0.2262 N   0  0  0  0  0  0  0  0  0  0  0  0
   -6.0931   -1.7711    1.0613 C   0  0  1  0  0  0  0  0  0  0  0  0
   -5.4801   -1.1483   -1.1934 C   0  0  1  0  0  0  0  0  0  0  0  0
   -5.0414    0.0930   -1.9757 C   0  0  1  0  0  0  0  0  0  0  0  0
   -5.8811    1.3177   -1.6011 C   0  0  1  0  0  0  0  0  0  0  0  0
   -5.7294    1.7282   -0.2261 N   0  0  0  0  0  0  0  0  0  0  0  0
   -4.6735    2.9618    0.1071 S   0  0  1  0  0  0  0  0  0  0  0  0
   -4.8753    3.9750   -0.8890 O   0  0  0  0  0  0  0  0  0  0  0  0
   -4.8544    3.2900    1.4903 O   0  0  0  0  0  0  0  0  0  0  0  0
   -3.0252    2.2891   -0.0946 C   0  0  0  0  0  0  0  0  0  0  0  0
   -2.3771    2.4027   -1.3105 C   0  0  0  0  0  0  0  0  0  0  0  0
   -1.1221    1.8495   -1.4669 C   0  0  0  0  0  0  0  0  0  0  0  0
   -0.5060    1.1796   -0.4033 C   0  0  0  0  0  0  0  0  0  0  0  0
   -1.1681    1.0862    0.8230 C   0  0  0  0  0  0  0  0  0  0  0  0
   -2.4248    1.6428    0.9683 C   0  0  0  0  0  0  0  0  0  0  0  0
    0.7489    0.6438   -0.6253 N   0  0  0  0  0  0  0  0  0  0  0  0
    1.5814   -0.0591    0.1920 C   0  0  0  0  0  0  0  0  0  0  0  0
    1.2124   -0.3850    1.4295 N   0  0  0  0  0  0  0  0  0  0  0  0
    2.0926   -1.0674    2.1446 C   0  0  0  0  0  0  0  0  0  0  0  0
    3.3338   -1.4394    1.6647 C   0  0  0  0  0  0  0  0  0  0  0  0
    3.6256   -1.0571    0.3487 C   0  0  0  0  0  0  0  0  0  0  0  0
    2.7460   -0.3709   -0.3786 N   0  0  0  0  0  0  0  0  0  0  0  0
    4.8707   -1.3661   -0.3115 C   0  0  0  0  0  0  0  0  0  0  0  0
    5.2658   -1.0466   -1.6100 C   0  0  0  0  0  0  0  0  0  0  0  0
    6.4922   -1.4929   -1.8820 N   0  0  0  0  0  0  0  0  0  0  0  0
    6.9088   -2.1000   -0.7806 C   0  0  0  0  0  0  0  0  0  0  0  0
    5.9300   -2.0429    0.2159 N   0  0  0  0  0  0  0  0  0  0  0  0
    6.0631   -2.5640    1.4222 N   0  0  0  0  0  0  0  0  0  0  0  0
    7.1874   -3.1660    1.6837 C   0  0  0  0  0  0  0  0  0  0  0  0
    8.2509   -3.2907    0.7680 C   0  0  0  0  0  0  0  0  0  0  0  0
    8.1101   -2.7499   -0.4840 C   0  0  0  0  0  0  0  0  0  0  0  0
   -3.5656   -1.2306    1.5464 H   0  0  0  0  0  0  0  0  0  0  0  0
   -3.6345   -2.5141    0.3171 H   0  0  0  0  0  0  0  0  0  0  0  0
   -3.1086   -0.8735   -0.1190 H   0  0  0  0  0  0  0  0  0  0  0  0
   -5.8335   -1.6069    2.1062 H   0  0  0  0  0  0  0  0  0  0  0  0
   -7.1014   -1.3961    0.8939 H   0  0  0  0  0  0  0  0  0  0  0  0
   -6.0796   -2.8541    0.8655 H   0  0  0  0  0  0  0  0  0  0  0  0
   -5.0171   -2.0472   -1.6340 H   0  0  0  0  0  0  0  0  0  0  0  0
   -6.5632   -1.2503   -1.2953 H   0  0  0  0  0  0  0  0  0  0  0  0
   -3.9866    0.2999   -1.7908 H   0  0  0  0  0  0  0  0  0  0  0  0
   -5.1666   -0.1045   -3.0418 H   0  0  0  0  0  0  0  0  0  0  0  0
   -5.6098    2.1821   -2.2107 H   0  0  0  0  0  0  0  0  0  0  0  0
   -6.9404    1.0960   -1.7767 H   0  0  0  0  0  0  0  0  0  0  0  0
   -5.6301    0.9358    0.4009 H   0  0  0  0  0  0  0  0  0  0  0  0
   -2.8615    2.9362   -2.1129 H   0  0  0  0  0  0  0  0  0  0  0  0
   -0.6061    1.9360   -2.4125 H   0  0  0  0  0  0  0  0  0  0  0  0
   -0.6832    0.5787    1.6394 H   0  0  0  0  0  0  0  0  0  0  0  0
   -2.9521    1.5984    1.9076 H   0  0  0  0  0  0  0  0  0  0  0  0
    1.1543    0.8113   -1.5373 H   0  0  0  0  0  0  0  0  0  0  0  0
    1.7741   -1.3200    3.1480 H   0  0  0  0  0  0  0  0  0  0  0  0
    4.0401   -1.9910    2.2585 H   0  0  0  0  0  0  0  0  0  0  0  0
    4.6906   -0.5102   -2.3374 H   0  0  0  0  0  0  0  0  0  0  0  0
    7.2564   -3.5776    2.6794 H   0  0  0  0  0  0  0  0  0  0  0  0
    9.1517   -3.8042    1.0606 H   0  0  0  0  0  0  0  0  0  0  0  0
    8.8772   -2.8039   -1.2388 H   0  0  0  0  0  0  0  0  0  0  0  0
  1 33  1  1
  2  1  1  0
  2  3  1  0
  3 36  1  1
  4  2  1  0
  5 41  1  6
  5  6  1  0
  5  4  1  0
  6  7  1  0
  8  7  1  6
  7 45  1  0
  8 10  2  0
  9  8  2  0
 11  8  1  0
 11 16  2  0
 12 11  1  0
 13 12  2  0
 13 14  1  0
 14 15  2  0
 15 16  1  0
 15 48  1  0
 16 49  1  0
 17 14  1  0
 17 18  1  0
 18 19  2  0
 19 20  1  0
 20 51  1  0
 21 20  2  0
 21 52  1  0
 22 21  1  0
 23 18  1  0
 23 22  2  0
 24 28  1  0
 24 22  1  0
 25 24  2  0
 26 25  1  0
 26 27  2  0
 27 32  1  0
 27 28  1  0
 28 29  1  0
 29 30  2  0
 30 54  1  0
 31 55  1  0
 31 30  1  0
 32 31  2  0
 34  1  1  0
 35  1  1  0
 37  3  1  0
 38  3  1  0
  4 39  1  6
 40  4  1  0
 42  5  1  0
  6 43  1  6
 44  6  1  0
 46 12  1  0
 47 13  1  0
 50 17  1  0
 53 25  1  0
 56 32  1  0
M  END
$$$$
