-91.99570988
     RDKit          3D

 56 59  0  0  0  0  0  0  0  0999 V2000
   -6.5893   -1.4171    0.6412 C   0  0  1  0  0  0  0  0  0  0  0  0
   -6.5607   -0.7838   -0.6659 N   0  0  0  0  0  0  0  0  0  0  0  0
   -7.8984   -0.4294   -1.0964 C   0  0  1  0  0  0  0  0  0  0  0  0
   -5.8808   -1.6003   -1.6639 C   0  0  1  0  0  0  0  0  0  0  0  0
   -4.3644   -1.6553   -1.4686 C   0  0  1  0  0  0  0  0  0  0  0  0
   -3.7218   -0.2674   -1.5457 C   0  0  1  0  0  0  0  0  0  0  0  0
   -4.1602    0.6327   -0.5003 N   0  0  0  0  0  0  0  0  0  0  0  0
   -3.4404    0.4023    0.9895 S   0  0  1  0  0  0  0  0  0  0  0  0
   -4.1924    1.1811    1.9295 O   0  0  0  0  0  0  0  0  0  0  0  0
   -3.2404   -0.9965    1.2895 O   0  0  0  0  0  0  0  0  0  0  0  0
   -1.8485    1.1482    0.7016 C   0  0  0  0  0  0  0  0  0  0  0  0
   -1.7662    2.5186    0.5397 C   0  0  0  0  0  0  0  0  0  0  0  0
   -0.5391    3.0969    0.2885 C   0  0  0  0  0  0  0  0  0  0  0  0
    0.6123    2.3049    0.1921 C   0  0  0  0  0  0  0  0  0  0  0  0
    0.5140    0.9221    0.3557 C   0  0  0  0  0  0  0  0  0  0  0  0
   -0.7206    0.3562    0.6117 C   0  0  0  0  0  0  0  0  0  0  0  0
    1.8105    2.9462   -0.0604 N   0  0  0  0  0  0  0  0  0  0  0  0
    3.0760    2.4672   -0.2069 C   0  0  0  0  0  0  0  0  0  0  0  0
    3.9845    3.4306   -0.4167 N   0  0  0  0  0  0  0  0  0  0  0  0
    5.2363    3.0402   -0.5674 C   0  0  0  0  0  0  0  0  0  0  0  0
    5.6172    1.7111   -0.5183 C   0  0  0  0  0  0  0  0  0  0  0  0
    4.5946    0.7787   -0.2996 C   0  0  0  0  0  0  0  0  0  0  0  0
    3.3300    1.1668   -0.1451 N   0  0  0  0  0  0  0  0  0  0  0  0
    4.8818   -0.6347   -0.2370 C   0  0  0  0  0  0  0  0  0  0  0  0
    6.0957   -1.3066   -0.3770 C   0  0  0  0  0  0  0  0  0  0  0  0
    5.9541   -2.6271   -0.2565 N   0  0  0  0  0  0  0  0  0  0  0  0
    4.6631   -2.8331   -0.0383 C   0  0  0  0  0  0  0  0  0  0  0  0
    3.9665   -1.6248   -0.0199 N   0  0  0  0  0  0  0  0  0  0  0  0
    2.6692   -1.5175    0.1762 N   0  0  0  0  0  0  0  0  0  0  0  0
    2.0057   -2.6201    0.3644 C   0  0  0  0  0  0  0  0  0  0  0  0
    2.5901   -3.9038    0.3688 C   0  0  0  0  0  0  0  0  0  0  0  0
    3.9404   -4.0134    0.1641 C   0  0  0  0  0  0  0  0  0  0  0  0
   -5.5760   -1.5725    1.0039 H   0  0  0  0  0  0  0  0  0  0  0  0
   -7.0951   -0.7548    1.3418 H   0  0  0  0  0  0  0  0  0  0  0  0
   -7.1171   -2.3829    0.6216 H   0  0  0  0  0  0  0  0  0  0  0  0
   -8.3490    0.2226   -0.3496 H   0  0  0  0  0  0  0  0  0  0  0  0
   -7.8450    0.1114   -2.0409 H   0  0  0  0  0  0  0  0  0  0  0  0
   -8.5483   -1.3077   -1.2311 H   0  0  0  0  0  0  0  0  0  0  0  0
   -6.2808   -2.6305   -1.6724 H   0  0  0  0  0  0  0  0  0  0  0  0
   -6.0852   -1.1562   -2.6433 H   0  0  0  0  0  0  0  0  0  0  0  0
   -4.1149   -2.0967   -0.5050 H   0  0  0  0  0  0  0  0  0  0  0  0
   -3.9411   -2.2858   -2.2533 H   0  0  0  0  0  0  0  0  0  0  0  0
   -2.6351   -0.3533   -1.4603 H   0  0  0  0  0  0  0  0  0  0  0  0
   -3.9574    0.2022   -2.5069 H   0  0  0  0  0  0  0  0  0  0  0  0
   -5.1771    0.5916   -0.4142 H   0  0  0  0  0  0  0  0  0  0  0  0
   -2.6648    3.1077    0.6226 H   0  0  0  0  0  0  0  0  0  0  0  0
   -0.4602    4.1676    0.1656 H   0  0  0  0  0  0  0  0  0  0  0  0
    1.3999    0.3134    0.2815 H   0  0  0  0  0  0  0  0  0  0  0  0
   -0.8310   -0.7068    0.7569 H   0  0  0  0  0  0  0  0  0  0  0  0
    1.7724    3.9548   -0.1387 H   0  0  0  0  0  0  0  0  0  0  0  0
    5.9566    3.8311   -0.7339 H   0  0  0  0  0  0  0  0  0  0  0  0
    6.6428    1.4128   -0.6422 H   0  0  0  0  0  0  0  0  0  0  0  0
    7.0647   -0.8857   -0.5607 H   0  0  0  0  0  0  0  0  0  0  0  0
    0.9464   -2.4894    0.5234 H   0  0  0  0  0  0  0  0  0  0  0  0
    1.9739   -4.7724    0.5321 H   0  0  0  0  0  0  0  0  0  0  0  0
    4.4620   -4.9564    0.1531 H   0  0  0  0  0  0  0  0  0  0  0  0
  1 33  1  1
  1 34  1  0
  2  1  1  0
  3  2  1  0
  3 36  1  1
  4  5  1  0
  4  2  1  0
  5 41  1  1
  6  5  1  0
  6 43  1  6
  6  7  1  0
  7 45  1  0
  8  7  1  6
  8 10  2  0
  8  9  2  0
 11  8  1  0
 12 46  1  0
 12 11  2  0
 13 12  1  0
 14 13  2  0
 14 15  1  0
 15 16  2  0
 16 11  1  0
 16 49  1  0
 17 14  1  0
 18 23  1  0
 18 17  1  0
 19 18  2  0
 20 21  2  0
 20 19  1  0
 21 22  1  0
 22 24  1  0
 22 23  2  0
 24 28  1  0
 25 26  1  0
 25 24  2  0
 26 27  2  0
 27 28  1  0
 27 32  1  0
 28 29  1  0
 29 30  2  0
 30 31  1  0
 30 54  1  0
 31 55  1  0
 32 31  2  0
 35  1  1  0
 37  3  1  0
 38  3  1  0
  4 39  1  6
 40  4  1  0
 42  5  1  0
 44  6  1  0
 47 13  1  0
 48 15  1  0
 50 17  1  0
 51 20  1  0
 52 21  1  0
 53 25  1  0
 56 32  1  0
M  END
$$$$
