-91.99467950
     RDKit          3D

 56 59  0  0  0  0  0  0  0  0999 V2000
   -3.6401   -1.9525    2.7113 C   0  0  1  0  0  0  0  0  0  0  0  0
   -3.3941   -0.7145    1.9976 N   0  0  0  0  0  0  0  0  0  0  0  0
   -2.0255   -0.2763    2.1870 C   0  0  1  0  0  0  0  0  0  0  0  0
   -4.3503    0.3294    2.3521 C   0  0  1  0  0  0  0  0  0  0  0  0
   -4.5741    1.3158    1.2026 C   0  0  1  0  0  0  0  0  0  0  0  0
   -5.3182    0.6610    0.0351 C   0  0  1  0  0  0  0  0  0  0  0  0
   -4.5940   -0.4224   -0.5845 N   0  0  0  0  0  0  0  0  0  0  0  0
   -3.7196   -0.0988   -1.9562 S   0  0  1  0  0  0  0  0  0  0  0  0
   -3.3106   -1.3686   -2.4834 O   0  0  0  0  0  0  0  0  0  0  0  0
   -4.5119    0.7779   -2.7700 O   0  0  0  0  0  0  0  0  0  0  0  0
   -2.2466    0.7727   -1.4301 C   0  0  0  0  0  0  0  0  0  0  0  0
   -1.1270    0.0392   -1.0898 C   0  0  0  0  0  0  0  0  0  0  0  0
    0.0196    0.6729   -0.6507 C   0  0  0  0  0  0  0  0  0  0  0  0
    0.0356    2.0653   -0.5444 C   0  0  0  0  0  0  0  0  0  0  0  0
   -1.1020    2.7986   -0.9029 C   0  0  0  0  0  0  0  0  0  0  0  0
   -2.2380    2.1526   -1.3494 C   0  0  0  0  0  0  0  0  0  0  0  0
    1.1364    2.7705   -0.0948 N   0  0  0  0  0  0  0  0  0  0  0  0
    2.3692    2.3556    0.3064 C   0  0  0  0  0  0  0  0  0  0  0  0
    3.1719    3.3637    0.6754 N   0  0  0  0  0  0  0  0  0  0  0  0
    4.3859    3.0360    1.0768 C   0  0  0  0  0  0  0  0  0  0  0  0
    4.8326    1.7273    1.1195 C   0  0  0  0  0  0  0  0  0  0  0  0
    3.9201    0.7451    0.7128 C   0  0  0  0  0  0  0  0  0  0  0  0
    2.6912    1.0690    0.3145 N   0  0  0  0  0  0  0  0  0  0  0  0
    4.2873   -0.6510    0.7067 C   0  0  0  0  0  0  0  0  0  0  0  0
    5.4592   -1.2692    1.1415 C   0  0  0  0  0  0  0  0  0  0  0  0
    5.4283   -2.5890    0.9535 N   0  0  0  0  0  0  0  0  0  0  0  0
    4.2532   -2.8470    0.3972 C   0  0  0  0  0  0  0  0  0  0  0  0
    3.5165   -1.6742    0.2331 N   0  0  0  0  0  0  0  0  0  0  0  0
    2.3119   -1.6201   -0.2956 N   0  0  0  0  0  0  0  0  0  0  0  0
    1.7889   -2.7427   -0.6931 C   0  0  0  0  0  0  0  0  0  0  0  0
    2.4293   -3.9949   -0.5857 C   0  0  0  0  0  0  0  0  0  0  0  0
    3.6804   -4.0497   -0.0296 C   0  0  0  0  0  0  0  0  0  0  0  0
   -2.9291   -2.7035    2.3693 H   0  0  0  0  0  0  0  0  0  0  0  0
   -3.5336   -1.8441    3.8013 H   0  0  0  0  0  0  0  0  0  0  0  0
   -4.6465   -2.3044    2.4901 H   0  0  0  0  0  0  0  0  0  0  0  0
   -1.7884   -0.1034    3.2486 H   0  0  0  0  0  0  0  0  0  0  0  0
   -1.3472   -1.0342    1.7981 H   0  0  0  0  0  0  0  0  0  0  0  0
   -1.8518    0.6469    1.6391 H   0  0  0  0  0  0  0  0  0  0  0  0
   -5.3062   -0.1464    2.5846 H   0  0  0  0  0  0  0  0  0  0  0  0
   -4.0219    0.8765    3.2518 H   0  0  0  0  0  0  0  0  0  0  0  0
   -5.1710    2.1516    1.5719 H   0  0  0  0  0  0  0  0  0  0  0  0
   -3.6182    1.7093    0.8551 H   0  0  0  0  0  0  0  0  0  0  0  0
   -6.2774    0.2689    0.3933 H   0  0  0  0  0  0  0  0  0  0  0  0
   -5.5215    1.3851   -0.7566 H   0  0  0  0  0  0  0  0  0  0  0  0
   -4.0784   -0.9748    0.0932 H   0  0  0  0  0  0  0  0  0  0  0  0
   -1.1737   -1.0330   -1.1898 H   0  0  0  0  0  0  0  0  0  0  0  0
    0.9028    0.1117   -0.3949 H   0  0  0  0  0  0  0  0  0  0  0  0
   -1.0849    3.8771   -0.8347 H   0  0  0  0  0  0  0  0  0  0  0  0
   -3.1163    2.7019   -1.6501 H   0  0  0  0  0  0  0  0  0  0  0  0
    1.0430    3.7780   -0.0623 H   0  0  0  0  0  0  0  0  0  0  0  0
    5.0204    3.8621    1.3716 H   0  0  0  0  0  0  0  0  0  0  0  0
    5.8284    1.4806    1.4414 H   0  0  0  0  0  0  0  0  0  0  0  0
    6.3200   -0.8103    1.5868 H   0  0  0  0  0  0  0  0  0  0  0  0
    0.8047   -2.6550   -1.1273 H   0  0  0  0  0  0  0  0  0  0  0  0
    1.9318   -4.8828   -0.9392 H   0  0  0  0  0  0  0  0  0  0  0  0
    4.2355   -4.9659    0.0880 H   0  0  0  0  0  0  0  0  0  0  0  0
  1 34  1  1
  2  3  1  0
  2  4  1  0
  2  1  1  0
  3 36  1  1
  4 39  1  1
  4 40  1  0
  5 41  1  1
  5  4  1  0
  6 43  1  1
  6  5  1  0
  7  6  1  0
  7 45  1  0
  8 11  1  0
  8  7  1  1
  9  8  2  0
 10  8  2  0
 11 16  2  0
 11 12  1  0
 12 13  2  0
 13 14  1  0
 13 47  1  0
 14 17  1  0
 15 48  1  0
 15 14  2  0
 16 15  1  0
 17 50  1  0
 17 18  1  0
 18 23  1  0
 18 19  2  0
 19 20  1  0
 20 21  2  0
 20 51  1  0
 21 52  1  0
 22 21  1  0
 23 22  2  0
 24 22  1  0
 24 25  2  0
 25 53  1  0
 26 25  1  0
 27 26  2  0
 28 27  1  0
 28 24  1  0
 29 28  1  0
 30 31  1  0
 30 29  2  0
 31 32  2  0
 32 56  1  0
 32 27  1  0
 33  1  1  0
 35  1  1  0
 37  3  1  0
 38  3  1  0
 42  5  1  0
 44  6  1  0
 46 12  1  0
 49 16  1  0
 54 30  1  0
 55 31  1  0
M  END
$$$$
