-91.99449265
     RDKit          3D

 56 59  0  0  0  0  0  0  0  0999 V2000
   -3.1685   -2.5769    0.1562 C   0  0  1  0  0  0  0  0  0  0  0  0
   -3.8320   -1.9023    1.2581 N   0  0  0  0  0  0  0  0  0  0  0  0
   -3.3603   -2.4078    2.5325 C   0  0  1  0  0  0  0  0  0  0  0  0
   -5.2859   -1.9859    1.1577 C   0  0  1  0  0  0  0  0  0  0  0  0
   -5.8781   -1.0398    0.1101 C   0  0  1  0  0  0  0  0  0  0  0  0
   -5.6019    0.4277    0.4465 C   0  0  1  0  0  0  0  0  0  0  0  0
   -4.1929    0.7643    0.3580 N   0  0  0  0  0  0  0  0  0  0  0  0
   -3.6593    1.0444   -1.2066 S   0  0  1  0  0  0  0  0  0  0  0  0
   -3.5452   -0.1843   -1.9583 O   0  0  0  0  0  0  0  0  0  0  0  0
   -4.4826    2.0769   -1.7639 O   0  0  0  0  0  0  0  0  0  0  0  0
   -2.0259    1.6538   -0.8504 C   0  0  0  0  0  0  0  0  0  0  0  0
   -0.9912    0.7463   -0.7290 C   0  0  0  0  0  0  0  0  0  0  0  0
    0.2787    1.1736   -0.3943 C   0  0  0  0  0  0  0  0  0  0  0  0
    0.5084    2.5337   -0.1759 C   0  0  0  0  0  0  0  0  0  0  0  0
   -0.5475    3.4436   -0.3087 C   0  0  0  0  0  0  0  0  0  0  0  0
   -1.8124    3.0031   -0.6423 C   0  0  0  0  0  0  0  0  0  0  0  0
    1.7495    3.0357    0.1680 N   0  0  0  0  0  0  0  0  0  0  0  0
    2.9367    2.4138    0.4048 C   0  0  0  0  0  0  0  0  0  0  0  0
    3.9242    3.2609    0.7278 N   0  0  0  0  0  0  0  0  0  0  0  0
    5.1052    2.7262    0.9754 C   0  0  0  0  0  0  0  0  0  0  0  0
    5.3388    1.3638    0.9125 C   0  0  0  0  0  0  0  0  0  0  0  0
    4.2439    0.5613    0.5669 C   0  0  0  0  0  0  0  0  0  0  0  0
    3.0500    1.0950    0.3166 N   0  0  0  0  0  0  0  0  0  0  0  0
    4.3749   -0.8739    0.4747 C   0  0  0  0  0  0  0  0  0  0  0  0
    5.4521   -1.6960    0.8034 C   0  0  0  0  0  0  0  0  0  0  0  0
    5.1856   -2.9836    0.5804 N   0  0  0  0  0  0  0  0  0  0  0  0
    3.9487   -3.0192    0.1060 C   0  0  0  0  0  0  0  0  0  0  0  0
    3.4121   -1.7336    0.0295 N   0  0  0  0  0  0  0  0  0  0  0  0
    2.2033   -1.4576   -0.4131 N   0  0  0  0  0  0  0  0  0  0  0  0
    1.4710   -2.4606   -0.7996 C   0  0  0  0  0  0  0  0  0  0  0  0
    1.8924   -3.8062   -0.7677 C   0  0  0  0  0  0  0  0  0  0  0  0
    3.1513   -4.0914   -0.3075 C   0  0  0  0  0  0  0  0  0  0  0  0
   -3.4552   -3.6374    0.0854 H   0  0  0  0  0  0  0  0  0  0  0  0
   -3.4093   -2.0785   -0.7807 H   0  0  0  0  0  0  0  0  0  0  0  0
   -2.0906   -2.5207    0.3098 H   0  0  0  0  0  0  0  0  0  0  0  0
   -2.2798   -2.2789    2.5880 H   0  0  0  0  0  0  0  0  0  0  0  0
   -3.8162   -1.8369    3.3404 H   0  0  0  0  0  0  0  0  0  0  0  0
   -3.5928   -3.4735    2.6806 H   0  0  0  0  0  0  0  0  0  0  0  0
   -5.6049   -3.0198    0.9362 H   0  0  0  0  0  0  0  0  0  0  0  0
   -5.6987   -1.7129    2.1335 H   0  0  0  0  0  0  0  0  0  0  0  0
   -5.4683   -1.2520   -0.8769 H   0  0  0  0  0  0  0  0  0  0  0  0
   -6.9569   -1.2031    0.0744 H   0  0  0  0  0  0  0  0  0  0  0  0
   -6.1206    1.0859   -0.2536 H   0  0  0  0  0  0  0  0  0  0  0  0
   -5.9395    0.6553    1.4632 H   0  0  0  0  0  0  0  0  0  0  0  0
   -3.6514    0.0135    0.7880 H   0  0  0  0  0  0  0  0  0  0  0  0
   -1.1995   -0.2947   -0.9158 H   0  0  0  0  0  0  0  0  0  0  0  0
    1.0946    0.4760   -0.3031 H   0  0  0  0  0  0  0  0  0  0  0  0
   -0.3665    4.4966   -0.1473 H   0  0  0  0  0  0  0  0  0  0  0  0
   -2.6404    3.6842   -0.7540 H   0  0  0  0  0  0  0  0  0  0  0  0
    1.8135    4.0397    0.2810 H   0  0  0  0  0  0  0  0  0  0  0  0
    5.8907    3.4251    1.2332 H   0  0  0  0  0  0  0  0  0  0  0  0
    6.3096    0.9469    1.1124 H   0  0  0  0  0  0  0  0  0  0  0  0
    6.4056   -1.4054    1.1987 H   0  0  0  0  0  0  0  0  0  0  0  0
    0.4908   -2.1912   -1.1626 H   0  0  0  0  0  0  0  0  0  0  0  0
    1.2273   -4.5843   -1.1042 H   0  0  0  0  0  0  0  0  0  0  0  0
    3.5485   -5.0917   -0.2543 H   0  0  0  0  0  0  0  0  0  0  0  0
  1 35  1  1
  1  2  1  0
  2  3  1  0
  3 36  1  6
  3 38  1  0
  3 37  1  0
  4  2  1  0
  4 40  1  1
  5  6  1  0
  5  4  1  0
  6 44  1  1
  7  6  1  0
  7 45  1  0
  8 11  1  0
  8  7  1  1
  9  8  2  0
 10  8  2  0
 11 12  2  0
 11 16  1  0
 12 13  1  0
 13 47  1  0
 13 14  2  0
 14 17  1  0
 15 14  1  0
 15 48  1  0
 16 15  2  0
 17 50  1  0
 17 18  1  0
 18 19  2  0
 19 20  1  0
 20 51  1  0
 21 20  2  0
 21 52  1  0
 22 21  1  0
 23 18  1  0
 23 22  2  0
 24 22  1  0
 24 25  2  0
 25 53  1  0
 26 25  1  0
 27 26  2  0
 28 27  1  0
 28 24  1  0
 29 28  1  0
 30 31  1  0
 30 29  2  0
 31 32  2  0
 32 56  1  0
 32 27  1  0
 33  1  1  0
 34  1  1  0
 39  4  1  0
  5 41  1  6
 42  5  1  0
 43  6  1  0
 46 12  1  0
 49 16  1  0
 54 30  1  0
 55 31  1  0
M  END
$$$$
