-43.36067809
     RDKit          3D

 24 24  0  0  1  0  0  0  0  0999 V2000
    0.8807    1.1460   -0.3958 C   0  0  2  0  0  0  0  0  0  0  0  0
   -0.2991    0.8663   -1.0890 O   0  0  0  0  0  0  0  0  0  0  0  0
   -1.2921    0.1273   -0.3924 C   0  0  1  0  0  0  0  0  0  0  0  0
   -0.7452   -1.1812    0.2065 C   0  0  2  0  0  0  0  0  0  0  0  0
    1.4996   -0.1091    0.2641 C   0  0  1  0  0  0  0  0  0  0  0  0
    0.7253   -1.3474   -0.1920 C   0  0  1  0  0  0  0  0  0  0  0  0
    1.2110   -2.5182    0.4148 O   0  0  0  0  0  0  0  0  0  0  0  0
   -1.5272   -2.2474   -0.2594 O   0  0  0  0  0  0  0  0  0  0  0  0
   -2.0018    1.0014    0.6621 C   0  0  1  0  0  0  0  0  0  0  0  0
   -2.1541    2.3274    0.2151 O   0  0  0  0  0  0  0  0  0  0  0  0
    2.1721   -2.5022    0.3286 H   0  0  0  0  0  0  0  0  0  0  0  0
   -1.0527   -3.0617   -0.0465 H   0  0  0  0  0  0  0  0  0  0  0  0
   -2.5691    2.3143   -0.6555 H   0  0  0  0  0  0  0  0  0  0  0  0
    0.7188    2.1268    0.5854 O   0  0  0  0  0  0  0  0  0  0  0  0
    2.8496   -0.2996   -0.0871 O   0  0  0  0  0  0  0  0  0  0  0  0
    0.8012   -1.4256   -1.2878 H   0  0  0  0  0  0  0  0  0  0  0  0
   -0.7866   -1.1452    1.3081 H   0  0  0  0  0  0  0  0  0  0  0  0
   -2.0040   -0.1450   -1.1801 H   0  0  0  0  0  0  0  0  0  0  0  0
   -2.9706    0.5462    0.9037 H   0  0  0  0  0  0  0  0  0  0  0  0
   -0.0677    2.6532    0.3687 H   0  0  0  0  0  0  0  0  0  0  0  0
    3.3546    0.4708    0.1943 H   0  0  0  0  0  0  0  0  0  0  0  0
    1.5644    1.5074   -1.1853 H   0  0  0  0  0  0  0  0  0  0  0  0
    1.4014   -0.0061    1.3560 H   0  0  0  0  0  0  0  0  0  0  0  0
   -1.4047    1.0675    1.5743 H   0  0  0  0  0  0  0  0  0  0  0  0
  1  5  1  0
  1 14  1  0
  2  1  1  0
  2  3  1  0
  3  4  1  0
  3  9  1  0
  4  6  1  0
  4 17  1  1
  5  6  1  0
  5 23  1  1
  6 16  1  6
  6  7  1  0
  8 12  1  0
  8  4  1  0
  9 19  1  1
  9 24  1  0
 10  9  1  0
 11  7  1  0
 13 10  1  0
 15 21  1  0
 15  5  1  0
  3 18  1  6
 20 14  1  0
  1 22  1  6
M  END
$$$$
