-43.36512151
     RDKit          3D

 24 24  0  0  1  0  0  0  0  0999 V2000
    1.0515    1.1528   -0.1273 C   0  0  2  0  0  0  0  0  0  0  0  0
   -0.0218    1.1980   -1.0214 O   0  0  0  0  0  0  0  0  0  0  0  0
   -1.1278    0.3292   -0.8026 C   0  0  1  0  0  0  0  0  0  0  0  0
   -0.7263   -1.1370   -0.5073 C   0  0  2  0  0  0  0  0  0  0  0  0
    1.5850   -0.2914    0.0411 C   0  0  1  0  0  0  0  0  0  0  0  0
    0.4700   -1.2624    0.4556 C   0  0  1  0  0  0  0  0  0  0  0  0
    0.0245   -1.0603    1.7769 O   0  0  0  0  0  0  0  0  0  0  0  0
   -0.4595   -1.8256   -1.6972 O   0  0  0  0  0  0  0  0  0  0  0  0
   -2.1594    0.9031    0.1910 C   0  0  1  0  0  0  0  0  0  0  0  0
   -1.7311    0.9941    1.5272 O   0  0  0  0  0  0  0  0  0  0  0  0
    0.7831   -0.9192    2.3552 H   0  0  0  0  0  0  0  0  0  0  0  0
    0.4052   -1.5331   -2.0233 H   0  0  0  0  0  0  0  0  0  0  0  0
   -1.4203    0.1198    1.8240 H   0  0  0  0  0  0  0  0  0  0  0  0
    0.8296    1.7542    1.1012 O   0  0  0  0  0  0  0  0  0  0  0  0
    2.1173   -0.7832   -1.1684 O   0  0  0  0  0  0  0  0  0  0  0  0
    0.8654   -2.2851    0.3453 H   0  0  0  0  0  0  0  0  0  0  0  0
   -1.5854   -1.6461   -0.0543 H   0  0  0  0  0  0  0  0  0  0  0  0
   -1.6257    0.3155   -1.7808 H   0  0  0  0  0  0  0  0  0  0  0  0
   -2.3971    1.9254   -0.1138 H   0  0  0  0  0  0  0  0  0  0  0  0
   -0.1088    1.6246    1.3691 H   0  0  0  0  0  0  0  0  0  0  0  0
    2.7196   -0.1290   -1.5411 H   0  0  0  0  0  0  0  0  0  0  0  0
    1.8341    1.7474   -0.6283 H   0  0  0  0  0  0  0  0  0  0  0  0
    2.3597   -0.2670    0.8271 H   0  0  0  0  0  0  0  0  0  0  0  0
   -3.0683    0.2916    0.1214 H   0  0  0  0  0  0  0  0  0  0  0  0
  1  5  1  0
  1 14  1  0
  2  3  1  0
  2  1  1  0
  3  4  1  0
  3  9  1  0
  4 17  1  1
  4  6  1  0
  5  6  1  0
  5 23  1  1
  6 16  1  1
  6  7  1  0
  7 11  1  0
  8  4  1  0
  9 10  1  0
 10 13  1  0
 12  8  1  0
 14 20  1  0
 15  5  1  0
  3 18  1  6
  9 19  1  6
 21 15  1  0
  1 22  1  6
 24  9  1  0
M  END
$$$$
