-43.36293920
     RDKit          3D

 24 24  0  0  1  0  0  0  0  0999 V2000
    1.2347    1.0840   -0.1877 C   0  0  2  0  0  0  0  0  0  0  0  0
    0.0949    1.2960   -0.9712 O   0  0  0  0  0  0  0  0  0  0  0  0
   -1.0728    0.5319   -0.6857 C   0  0  1  0  0  0  0  0  0  0  0  0
   -0.7594   -0.9655   -0.5354 C   0  0  2  0  0  0  0  0  0  0  0  0
    1.6226   -0.3989    0.0214 C   0  0  1  0  0  0  0  0  0  0  0  0
    0.3890   -1.1945    0.4709 C   0  0  1  0  0  0  0  0  0  0  0  0
   -0.0071   -0.8521    1.7774 O   0  0  0  0  0  0  0  0  0  0  0  0
   -0.3578   -1.5327   -1.7672 O   0  0  0  0  0  0  0  0  0  0  0  0
   -1.8755    1.1098    0.5187 C   0  0  1  0  0  0  0  0  0  0  0  0
   -2.5977    0.1536    1.2412 O   0  0  0  0  0  0  0  0  0  0  0  0
    0.3187    0.0415    1.9652 H   0  0  0  0  0  0  0  0  0  0  0  0
   -1.0547   -1.4001   -2.4196 H   0  0  0  0  0  0  0  0  0  0  0  0
   -1.9645   -0.3921    1.7377 H   0  0  0  0  0  0  0  0  0  0  0  0
    1.1232    1.6644    1.0927 O   0  0  0  0  0  0  0  0  0  0  0  0
    2.2319   -0.9336   -1.1125 O   0  0  0  0  0  0  0  0  0  0  0  0
    0.6332   -2.2638    0.4673 H   0  0  0  0  0  0  0  0  0  0  0  0
   -1.6624   -1.4731   -0.1679 H   0  0  0  0  0  0  0  0  0  0  0  0
   -1.6736    0.6538   -1.5965 H   0  0  0  0  0  0  0  0  0  0  0  0
   -1.1878    1.6531    1.1760 H   0  0  0  0  0  0  0  0  0  0  0  0
    1.0124    2.6182    0.9997 H   0  0  0  0  0  0  0  0  0  0  0  0
    1.5345   -1.1555   -1.7502 H   0  0  0  0  0  0  0  0  0  0  0  0
    2.0392    1.5685   -0.7609 H   0  0  0  0  0  0  0  0  0  0  0  0
    2.3747   -0.4177    0.8196 H   0  0  0  0  0  0  0  0  0  0  0  0
   -2.6110    1.8230    0.1386 H   0  0  0  0  0  0  0  0  0  0  0  0
  1  5  1  0
  1 14  1  0
  2  3  1  0
  2  1  1  0
  3  4  1  0
  3  9  1  0
  4 17  1  1
  4  6  1  0
  5  6  1  0
  5 23  1  1
  6 16  1  1
  6  7  1  0
  7 11  1  0
  8  4  1  0
  9 19  1  1
  9 10  1  0
 10 13  1  0
 12  8  1  0
 15  5  1  0
  3 18  1  6
 20 14  1  0
 21 15  1  0
  1 22  1  6
 24  9  1  0
M  END
$$$$
