-43.36223980
     RDKit          3D

 24 24  0  0  1  0  0  0  0  0999 V2000
    0.9992    1.0914   -0.1996 C   0  0  2  0  0  0  0  0  0  0  0  0
   -0.2283    1.0545   -0.8714 O   0  0  0  0  0  0  0  0  0  0  0  0
   -1.1915    0.0874   -0.4523 C   0  0  1  0  0  0  0  0  0  0  0  0
   -0.6138   -1.3122   -0.2102 C   0  0  2  0  0  0  0  0  0  0  0  0
    1.6849   -0.2875   -0.1438 C   0  0  1  0  0  0  0  0  0  0  0  0
    0.7439   -1.2975    0.5349 C   0  0  1  0  0  0  0  0  0  0  0  0
    0.5923   -1.0636    1.9058 O   0  0  0  0  0  0  0  0  0  0  0  0
   -0.4773   -1.9147   -1.4830 O   0  0  0  0  0  0  0  0  0  0  0  0
   -1.9981    0.6260    0.7406 C   0  0  1  0  0  0  0  0  0  0  0  0
   -2.4561    1.9273    0.4683 O   0  0  0  0  0  0  0  0  0  0  0  0
    0.6480   -0.1091    2.0623 H   0  0  0  0  0  0  0  0  0  0  0  0
   -0.1699   -2.8225   -1.3758 H   0  0  0  0  0  0  0  0  0  0  0  0
   -1.8378    2.3211   -0.1631 H   0  0  0  0  0  0  0  0  0  0  0  0
    0.8906    1.5787    1.1123 O   0  0  0  0  0  0  0  0  0  0  0  0
    2.0664   -0.7002   -1.4227 O   0  0  0  0  0  0  0  0  0  0  0  0
    1.1869   -2.3000    0.4384 H   0  0  0  0  0  0  0  0  0  0  0  0
   -1.3330   -1.8721    0.4060 H   0  0  0  0  0  0  0  0  0  0  0  0
   -1.8602    0.0160   -1.3193 H   0  0  0  0  0  0  0  0  0  0  0  0
   -2.8745   -0.0053    0.9086 H   0  0  0  0  0  0  0  0  0  0  0  0
    0.4727    2.4490    1.1038 H   0  0  0  0  0  0  0  0  0  0  0  0
    1.2606   -0.8581   -1.9414 H   0  0  0  0  0  0  0  0  0  0  0  0
    1.6131    1.7651   -0.8181 H   0  0  0  0  0  0  0  0  0  0  0  0
    2.6017   -0.1877    0.4464 H   0  0  0  0  0  0  0  0  0  0  0  0
   -1.3882    0.6241    1.6536 H   0  0  0  0  0  0  0  0  0  0  0  0
  1  5  1  0
  1 14  1  0
  2  3  1  0
  2  1  1  0
  3  4  1  0
  3  9  1  0
  4 17  1  1
  4  6  1  0
  5 23  1  1
  5  6  1  0
  6 16  1  1
  6  7  1  0
  7 11  1  0
  8 12  1  0
  8  4  1  0
  9 19  1  1
  9 24  1  0
 10  9  1  0
 13 10  1  0
 15  5  1  0
  3 18  1  6
 20 14  1  0
 21 15  1  0
  1 22  1  6
M  END
$$$$
