B19
     RDKit          3D

 16 15  0  0  0  0  0  0  0  0999 V2000
    1.8460    0.6150    0.2290 C   0  0  1  0  0  0  0  0  0  0  0  0
    1.8740    0.6840    1.3170 H   0  0  0  0  0  0  0  0  0  0  0  0
    2.5590   -0.5770   -0.0920 O   0  0  0  0  0  0  0  0  0  0  0  0
    0.4000    0.5870   -0.2520 C   0  0  1  0  0  0  0  0  0  0  0  0
   -0.0520    1.5550   -0.0160 H   0  0  0  0  0  0  0  0  0  0  0  0
    0.3910    0.4870   -1.3430 H   0  0  0  0  0  0  0  0  0  0  0  0
   -0.4110   -0.5420    0.3790 C   0  0  2  0  0  0  0  0  0  0  0  0
   -0.4710   -0.3860    1.4590 H   0  0  0  0  0  0  0  0  0  0  0  0
    0.1090   -1.4890    0.2160 H   0  0  0  0  0  0  0  0  0  0  0  0
    2.6370   -0.6160   -1.0490 H   0  0  0  0  0  0  0  0  0  0  0  0
    2.3610    1.4930   -0.1720 H   0  0  0  0  0  0  0  0  0  0  0  0
   -1.8230   -0.6540   -0.1790 C   0  0  1  0  0  0  0  0  0  0  0  0
   -1.7850   -0.8580   -1.2550 H   0  0  0  0  0  0  0  0  0  0  0  0
   -2.3450   -1.4830    0.2940 H   0  0  0  0  0  0  0  0  0  0  0  0
   -2.6230    0.4980    0.0850 O   0  0  0  0  0  0  0  0  0  0  0  0
   -2.2890    1.2150   -0.4590 H   0  0  0  0  0  0  0  0  0  0  0  0
  1  4  1  0
  1 11  1  6
  1  3  1  0
  1  2  1  0
  3 10  1  0
  4  6  1  6
  4  5  1  0
  4  7  1  0
  7 12  1  0
  7  9  1  1
  7  8  1  0
 12 13  1  6
 12 15  1  0
 12 14  1  0
 15 16  1  0
M  END
$$$$
