B43
     RDKit          3D

 16 15  0  0  0  0  0  0  0  0999 V2000
    1.2550   -0.4120    0.2270 C   0  0  1  0  0  0  0  0  0  0  0  0
    0.7660   -1.2630   -0.2360 H   0  0  0  0  0  0  0  0  0  0  0  0
    2.6150   -0.4610   -0.2050 O   0  0  0  0  0  0  0  0  0  0  0  0
    0.5800    0.8930   -0.1800 C   0  0  1  0  0  0  0  0  0  0  0  0
    1.1810    1.7200    0.2130 H   0  0  0  0  0  0  0  0  0  0  0  0
    0.6060    0.9800   -1.2690 H   0  0  0  0  0  0  0  0  0  0  0  0
   -0.8570    1.0640    0.3240 C   0  0  2  0  0  0  0  0  0  0  0  0
   -1.1750    2.0900    0.1290 H   0  0  0  0  0  0  0  0  0  0  0  0
   -0.8980    0.9190    1.4060 H   0  0  0  0  0  0  0  0  0  0  0  0
    3.0760    0.2670    0.2210 H   0  0  0  0  0  0  0  0  0  0  0  0
    1.1840   -0.5450    1.3120 H   0  0  0  0  0  0  0  0  0  0  0  0
   -1.8780    0.1410   -0.3200 C   0  0  1  0  0  0  0  0  0  0  0  0
   -2.8860    0.4780   -0.0610 H   0  0  0  0  0  0  0  0  0  0  0  0
   -1.7760    0.1800   -1.4100 H   0  0  0  0  0  0  0  0  0  0  0  0
   -1.6620   -1.1860    0.1610 O   0  0  0  0  0  0  0  0  0  0  0  0
   -2.3030   -1.7620   -0.2630 H   0  0  0  0  0  0  0  0  0  0  0  0
  1  2  1  6
  1  3  1  0
  1  4  1  0
  1 11  1  0
  3 10  1  0
  4  6  1  6
  4  5  1  0
  4  7  1  0
  7 12  1  0
  7  8  1  1
  7  9  1  0
 12 14  1  6
 12 13  1  0
 12 15  1  0
 15 16  1  0
M  END
$$$$
