B48
     RDKit          3D

 16 15  0  0  0  0  0  0  0  0999 V2000
    0.2280    1.5350   -0.3410 C   0  0  1  0  0  0  0  0  0  0  0  0
   -0.1030    2.5670   -0.2400 H   0  0  0  0  0  0  0  0  0  0  0  0
    1.6460    1.6020   -0.4640 O   0  0  0  0  0  0  0  0  0  0  0  0
   -0.2280    0.7310    0.8730 C   0  0  1  0  0  0  0  0  0  0  0  0
    0.1500    1.2210    1.7720 H   0  0  0  0  0  0  0  0  0  0  0  0
   -1.3200    0.7770    0.9290 H   0  0  0  0  0  0  0  0  0  0  0  0
    0.2280   -0.7310    0.8730 C   0  0  2  0  0  0  0  0  0  0  0  0
   -0.1500   -1.2210    1.7720 H   0  0  0  0  0  0  0  0  0  0  0  0
    1.3200   -0.7770    0.9290 H   0  0  0  0  0  0  0  0  0  0  0  0
    1.9640    0.7220   -0.6800 H   0  0  0  0  0  0  0  0  0  0  0  0
   -0.2180    1.1410   -1.2610 H   0  0  0  0  0  0  0  0  0  0  0  0
   -0.2280   -1.5350   -0.3410 C   0  0  1  0  0  0  0  0  0  0  0  0
    0.2180   -1.1410   -1.2610 H   0  0  0  0  0  0  0  0  0  0  0  0
    0.1030   -2.5670   -0.2400 H   0  0  0  0  0  0  0  0  0  0  0  0
   -1.6460   -1.6020   -0.4640 O   0  0  0  0  0  0  0  0  0  0  0  0
   -1.9640   -0.7220   -0.6800 H   0  0  0  0  0  0  0  0  0  0  0  0
  1 11  1  6
  1  3  1  0
  1  2  1  0
  1  4  1  0
  3 10  1  0
  4  7  1  0
  4  6  1  1
  4  5  1  0
  7 12  1  0
  7  9  1  1
  7  8  1  0
 12 13  1  6
 12 15  1  0
 12 14  1  0
 15 16  1  0
M  END
$$$$
