B3
     RDKit          3D

 16 15  0  0  0  0  0  0  0  0999 V2000
    1.4290   -0.0970    0.5490 C   0  0  1  0  0  0  0  0  0  0  0  0
    0.9040   -0.5610    1.3890 H   0  0  0  0  0  0  0  0  0  0  0  0
    1.5370   -1.0100   -0.5330 O   0  0  0  0  0  0  0  0  0  0  0  0
    0.7400    1.2100    0.1560 C   0  0  1  0  0  0  0  0  0  0  0  0
    0.6150    1.8160    1.0580 H   0  0  0  0  0  0  0  0  0  0  0  0
    1.4000    1.7660   -0.5140 H   0  0  0  0  0  0  0  0  0  0  0  0
   -0.6160    1.0410   -0.5390 C   0  0  2  0  0  0  0  0  0  0  0  0
   -0.4750    0.5940   -1.5250 H   0  0  0  0  0  0  0  0  0  0  0  0
   -1.0510    2.0290   -0.7010 H   0  0  0  0  0  0  0  0  0  0  0  0
    0.6600   -1.3990   -0.6230 H   0  0  0  0  0  0  0  0  0  0  0  0
    2.4460    0.1190    0.8770 H   0  0  0  0  0  0  0  0  0  0  0  0
   -1.6290    0.1950    0.2150 C   0  0  1  0  0  0  0  0  0  0  0  0
   -1.6320    0.4580    1.2780 H   0  0  0  0  0  0  0  0  0  0  0  0
   -2.6310    0.3700   -0.1840 H   0  0  0  0  0  0  0  0  0  0  0  0
   -1.2760   -1.1850    0.0430 O   0  0  0  0  0  0  0  0  0  0  0  0
   -1.8700   -1.7200    0.5770 H   0  0  0  0  0  0  0  0  0  0  0  0
  1  3  1  0
  1  4  1  0
  1 11  1  1
  1  2  1  0
  3 10  1  0
  4  7  1  0
  4  6  1  6
  4  5  1  0
  7  8  1  6
  7  9  1  0
  7 12  1  0
 12 14  1  6
 12 15  1  0
 12 13  1  0
 15 16  1  0
M  END
$$$$
