B4
     RDKit          3D

 16 15  0  0  0  0  0  0  0  0999 V2000
   -1.4390   -0.1100    0.5320 C   0  0  1  0  0  0  0  0  0  0  0  0
   -2.4720    0.0750    0.8250 H   0  0  0  0  0  0  0  0  0  0  0  0
   -1.4730   -1.0840   -0.5020 O   0  0  0  0  0  0  0  0  0  0  0  0
   -0.7980    1.2040    0.0870 C   0  0  1  0  0  0  0  0  0  0  0  0
   -1.4570    1.6940   -0.6320 H   0  0  0  0  0  0  0  0  0  0  0  0
   -0.7310    1.8610    0.9600 H   0  0  0  0  0  0  0  0  0  0  0  0
    0.5920    1.0560   -0.5440 C   0  0  2  0  0  0  0  0  0  0  0  0
    1.0130    2.0520   -0.7000 H   0  0  0  0  0  0  0  0  0  0  0  0
    0.5040    0.5960   -1.5300 H   0  0  0  0  0  0  0  0  0  0  0  0
   -0.5860   -1.4620   -0.5040 H   0  0  0  0  0  0  0  0  0  0  0  0
   -0.9170   -0.5060    1.4080 H   0  0  0  0  0  0  0  0  0  0  0  0
    1.5810    0.2380    0.2820 C   0  0  1  0  0  0  0  0  0  0  0  0
    2.6060    0.4720   -0.0110 H   0  0  0  0  0  0  0  0  0  0  0  0
    1.4810    0.4690    1.3430 H   0  0  0  0  0  0  0  0  0  0  0  0
    1.3610   -1.1800    0.1660 O   0  0  0  0  0  0  0  0  0  0  0  0
    1.8430   -1.4780   -0.6100 H   0  0  0  0  0  0  0  0  0  0  0  0
  1  3  1  0
  1  4  1  0
  1  2  1  1
  1 11  1  0
  3 10  1  0
  4  5  1  6
  4  7  1  0
  4  6  1  0
  7  9  1  6
  7  8  1  0
  7 12  1  0
 12 13  1  6
 12 15  1  0
 12 14  1  0
 15 16  1  0
M  END
$$$$
