B8
     RDKit          3D

 16 15  0  0  0  0  0  0  0  0999 V2000
   -1.8240   -0.6420   -0.1860 C   0  0  1  0  0  0  0  0  0  0  0  0
   -2.3370   -1.4950    0.2680 H   0  0  0  0  0  0  0  0  0  0  0  0
   -2.4850    0.5780    0.1520 O   0  0  0  0  0  0  0  0  0  0  0  0
   -0.4000   -0.5610    0.3300 C   0  0  1  0  0  0  0  0  0  0  0  0
   -0.4320   -0.4030    1.4110 H   0  0  0  0  0  0  0  0  0  0  0  0
    0.0960   -1.5160    0.1540 H   0  0  0  0  0  0  0  0  0  0  0  0
    0.4000    0.5610   -0.3300 C   0  0  2  0  0  0  0  0  0  0  0  0
   -0.0960    1.5160   -0.1540 H   0  0  0  0  0  0  0  0  0  0  0  0
    0.4320    0.4030   -1.4110 H   0  0  0  0  0  0  0  0  0  0  0  0
   -3.3750    0.5400   -0.2070 H   0  0  0  0  0  0  0  0  0  0  0  0
   -1.8170   -0.7890   -1.2710 H   0  0  0  0  0  0  0  0  0  0  0  0
    1.8240    0.6420    0.1860 C   0  0  1  0  0  0  0  0  0  0  0  0
    2.3370    1.4950   -0.2680 H   0  0  0  0  0  0  0  0  0  0  0  0
    1.8170    0.7880    1.2710 H   0  0  0  0  0  0  0  0  0  0  0  0
    2.4850   -0.5780   -0.1520 O   0  0  0  0  0  0  0  0  0  0  0  0
    3.3750   -0.5400    0.2070 H   0  0  0  0  0  0  0  0  0  0  0  0
  1 11  1  6
  1  3  1  0
  1  2  1  0
  1  4  1  0
  3 10  1  0
  4  7  1  0
  4  6  1  1
  4  5  1  0
  7  9  1  6
  7  8  1  0
  7 12  1  0
 12 13  1  6
 12 15  1  0
 12 14  1  0
 15 16  1  0
M  END
$$$$
