B7
     RDKit          3D

 16 15  0  0  0  0  0  0  0  0999 V2000
    0.1230    1.7630   -0.1800 C   0  0  1  0  0  0  0  0  0  0  0  0
   -0.8080    2.1950   -0.5460 H   0  0  0  0  0  0  0  0  0  0  0  0
   -0.1230    1.4220    1.1820 O   0  0  0  0  0  0  0  0  0  0  0  0
    0.5160    0.5710   -1.0460 C   0  0  1  0  0  0  0  0  0  0  0  0
    0.6630    0.9450   -2.0620 H   0  0  0  0  0  0  0  0  0  0  0  0
    1.4860    0.1890   -0.7140 H   0  0  0  0  0  0  0  0  0  0  0  0
   -0.5160   -0.5710   -1.0460 C   0  0  2  0  0  0  0  0  0  0  0  0
   -0.6630   -0.9450   -2.0620 H   0  0  0  0  0  0  0  0  0  0  0  0
   -1.4860   -0.1890   -0.7140 H   0  0  0  0  0  0  0  0  0  0  0  0
    0.6160    0.8760    1.4690 H   0  0  0  0  0  0  0  0  0  0  0  0
    0.8960    2.5340   -0.2450 H   0  0  0  0  0  0  0  0  0  0  0  0
   -0.1230   -1.7630   -0.1800 C   0  0  1  0  0  0  0  0  0  0  0  0
   -0.8960   -2.5340   -0.2450 H   0  0  0  0  0  0  0  0  0  0  0  0
    0.8080   -2.1950   -0.5460 H   0  0  0  0  0  0  0  0  0  0  0  0
    0.1230   -1.4220    1.1820 O   0  0  0  0  0  0  0  0  0  0  0  0
   -0.6160   -0.8760    1.4690 H   0  0  0  0  0  0  0  0  0  0  0  0
  1  4  1  0
  1  2  1  6
  1 11  1  0
  1  3  1  0
  3 10  1  0
  4  5  1  6
  4  7  1  0
  4  6  1  0
  7  8  1  6
  7  9  1  0
  7 12  1  0
 12 14  1  6
 12 13  1  0
 12 15  1  0
 15 16  1  0
M  END
$$$$
