 energy: -42.468863270719 gnorm: 0.000024877049 xtb: 6.5.1 (9af7eec)
     RDKit          3D

 31 30  0  0  0  0  0  0  0  0999 V2000
   -1.9059   -0.4179    0.4974 N   0  0  0  0  0  0  0  0  0  0  0  0
   -0.7515    0.2733    1.0185 C   0  0  2  0  0  0  0  0  0  0  0  0
   -1.2476    1.5791    1.6375 C   0  0  0  0  0  0  0  0  0  0  0  0
   -2.4054    1.9392    1.5384 O   0  0  0  0  0  0  0  0  0  0  0  0
    0.3248    0.4590   -0.0703 C   0  0  2  0  0  0  0  0  0  0  0  0
   -0.1525    1.1804   -1.3357 C   0  0  1  0  0  0  0  0  0  0  0  0
   -0.2805    2.6882   -1.1307 C   0  0  1  0  0  0  0  0  0  0  0  0
    0.8224    0.8931   -2.4773 C   0  0  2  0  0  0  0  0  0  0  0  0
   -2.7478    0.1431    0.4600 H   0  0  0  0  0  0  0  0  0  0  0  0
   -0.3080   -0.3446    1.8138 H   0  0  0  0  0  0  0  0  0  0  0  0
    0.6462   -0.5481   -0.3435 H   0  0  0  0  0  0  0  0  0  0  0  0
    1.1869    0.9829    0.3483 H   0  0  0  0  0  0  0  0  0  0  0  0
   -1.1330    0.7793   -1.6114 H   0  0  0  0  0  0  0  0  0  0  0  0
   -0.5547    3.1695   -2.0669 H   0  0  0  0  0  0  0  0  0  0  0  0
   -1.0458    2.9250   -0.3984 H   0  0  0  0  0  0  0  0  0  0  0  0
    0.6665    3.1096   -0.7972 H   0  0  0  0  0  0  0  0  0  0  0  0
    1.8163    1.2599   -2.2290 H   0  0  0  0  0  0  0  0  0  0  0  0
    0.4950    1.3839   -3.3909 H   0  0  0  0  0  0  0  0  0  0  0  0
    0.8877   -0.1755   -2.6672 H   0  0  0  0  0  0  0  0  0  0  0  0
   -0.3094    2.2666    2.3123 N   0  0  0  0  0  0  0  0  0  0  0  0
    0.6289    1.9041    2.3616 H   0  0  0  0  0  0  0  0  0  0  0  0
   -0.5742    3.5350    2.9464 C   0  0  1  0  0  0  0  0  0  0  0  0
   -0.3519    3.4853    4.0134 H   0  0  0  0  0  0  0  0  0  0  0  0
    0.0232    4.3275    2.4913 H   0  0  0  0  0  0  0  0  0  0  0  0
   -1.6311    3.7555    2.8075 H   0  0  0  0  0  0  0  0  0  0  0  0
   -1.9252   -1.7517    0.2910 C   0  0  0  0  0  0  0  0  0  0  0  0
   -0.9451   -2.4502    0.4501 O   0  0  0  0  0  0  0  0  0  0  0  0
   -3.2698   -2.2741   -0.1695 C   0  0  2  0  0  0  0  0  0  0  0  0
   -4.0221   -2.0825    0.5922 H   0  0  0  0  0  0  0  0  0  0  0  0
   -3.1997   -3.3433   -0.3453 H   0  0  0  0  0  0  0  0  0  0  0  0
   -3.5691   -1.7752   -1.0883 H   0  0  0  0  0  0  0  0  0  0  0  0
  1  9  1  0
  1 26  1  0
  1  2  1  0
  2  5  1  0
  2  3  1  0
  2 10  1  1
  3  4  1  0
  3 20  1  0
  5 12  1  1
  5  6  1  0
  5 11  1  0
  6 13  1  6
  6  7  1  0
  6  8  1  0
  7 16  1  1
  7 15  1  0
  7 14  1  0
  8 18  1  6
  8 19  1  0
  8 17  1  0
 20 22  1  0
 20 21  1  0
 22 25  1  1
 22 24  1  0
 22 23  1  0
 26 28  1  0
 26 27  1  0
 28 31  1  6
 28 29  1  0
 28 30  1  0
M  END
$$$$
