 energy: -39.303384031498 gnorm: 0.000032771381 xtb: 6.5.1 (9af7eec)
     RDKit          3D

 28 27  0  0  0  0  0  0  0  0999 V2000
    0.9634    1.5551   -1.2787 N   0  0  0  0  0  0  0  0  0  0  0  0
    0.2230    0.3343   -1.0668 C   0  0  2  0  0  0  0  0  0  0  0  0
    0.0201   -0.3351   -2.4233 C   0  0  0  0  0  0  0  0  0  0  0  0
   -0.0383    0.3150   -3.4512 O   0  0  0  0  0  0  0  0  0  0  0  0
   -1.1506    0.6052   -0.4034 C   0  0  1  0  0  0  0  0  0  0  0  0
   -0.9525    0.9867    1.0607 C   0  0  2  0  0  0  0  0  0  0  0  0
   -1.9142    1.6966   -1.1502 C   0  0  1  0  0  0  0  0  0  0  0  0
    0.7257    2.0473   -2.1285 H   0  0  0  0  0  0  0  0  0  0  0  0
    0.8306   -0.2906   -0.4052 H   0  0  0  0  0  0  0  0  0  0  0  0
   -1.7335   -0.3213   -0.4547 H   0  0  0  0  0  0  0  0  0  0  0  0
   -1.9098    1.2093    1.5262 H   0  0  0  0  0  0  0  0  0  0  0  0
   -0.3164    1.8649    1.1362 H   0  0  0  0  0  0  0  0  0  0  0  0
   -0.4774    0.1785    1.6114 H   0  0  0  0  0  0  0  0  0  0  0  0
   -2.9330    1.7622   -0.7756 H   0  0  0  0  0  0  0  0  0  0  0  0
   -1.4348    2.6614   -1.0042 H   0  0  0  0  0  0  0  0  0  0  0  0
   -1.9506    1.4825   -2.2155 H   0  0  0  0  0  0  0  0  0  0  0  0
   -0.1265   -1.6742   -2.4328 N   0  0  0  0  0  0  0  0  0  0  0  0
   -0.2331   -2.0767   -3.3536 H   0  0  0  0  0  0  0  0  0  0  0  0
    0.0551   -2.5874   -1.3291 C   0  0  1  0  0  0  0  0  0  0  0  0
   -0.5896   -2.3203   -0.4914 H   0  0  0  0  0  0  0  0  0  0  0  0
   -0.2067   -3.5898   -1.6589 H   0  0  0  0  0  0  0  0  0  0  0  0
    1.0923   -2.5944   -0.9828 H   0  0  0  0  0  0  0  0  0  0  0  0
    2.1313    1.8104   -0.6459 C   0  0  0  0  0  0  0  0  0  0  0  0
    2.5558    1.1172    0.2555 O   0  0  0  0  0  0  0  0  0  0  0  0
    2.8282    3.0571   -1.1489 C   0  0  2  0  0  0  0  0  0  0  0  0
    2.1579    3.9116   -1.0931 H   0  0  0  0  0  0  0  0  0  0  0  0
    3.1287    2.9167   -2.1851 H   0  0  0  0  0  0  0  0  0  0  0  0
    3.7092    3.2471   -0.5432 H   0  0  0  0  0  0  0  0  0  0  0  0
  1 23  1  0
  1  2  1  0
  1  8  1  0
  2  5  1  0
  2  3  1  0
  2  9  1  1
  3 17  1  0
  3  4  1  0
  5 10  1  1
  5  6  1  0
  5  7  1  0
  6 12  1  6
  6 11  1  0
  6 13  1  0
  7 15  1  6
  7 14  1  0
  7 16  1  0
 17 18  1  0
 17 19  1  0
 19 21  1  6
 19 20  1  0
 19 22  1  0
 23 24  1  0
 23 25  1  0
 25 26  1  6
 25 27  1  0
 25 28  1  0
M  END
$$$$
