-42.45877580
     RDKit          3D

 31 30  0  0  1  0  0  0  0  0999 V2000
   -1.0290   -0.9866   -0.2593 N   0  0  0  0  0  0  0  0  0  0  0  0
    0.0058   -0.0484   -0.6238 C   0  0  2  0  0  0  0  0  0  0  0  0
    1.1401   -0.0892    0.4105 C   0  0  0  0  0  0  0  0  0  0  0  0
    0.9501   -0.4091    1.5644 O   0  0  0  0  0  0  0  0  0  0  0  0
   -0.6107    1.3571   -0.7334 C   0  0  2  0  0  0  0  0  0  0  0  0
   -0.9857    1.9908    0.6184 C   0  0  1  0  0  0  0  0  0  0  0  0
    0.1163    2.9281    1.1087 C   0  0  1  0  0  0  0  0  0  0  0  0
   -2.3041    2.7538    0.5008 C   0  0  2  0  0  0  0  0  0  0  0  0
   -1.7692   -0.6292    0.3289 H   0  0  0  0  0  0  0  0  0  0  0  0
    0.4001   -0.3373   -1.6039 H   0  0  0  0  0  0  0  0  0  0  0  0
   -1.5041    1.2591   -1.3544 H   0  0  0  0  0  0  0  0  0  0  0  0
    0.0809    2.0168   -1.2604 H   0  0  0  0  0  0  0  0  0  0  0  0
   -1.1066    1.1991    1.3640 H   0  0  0  0  0  0  0  0  0  0  0  0
   -0.1539    3.3540    2.0718 H   0  0  0  0  0  0  0  0  0  0  0  0
    1.0542    2.3931    1.2296 H   0  0  0  0  0  0  0  0  0  0  0  0
    0.2663    3.7444    0.4036 H   0  0  0  0  0  0  0  0  0  0  0  0
   -3.1142    2.0902    0.2063 H   0  0  0  0  0  0  0  0  0  0  0  0
   -2.2198    3.5456   -0.2413 H   0  0  0  0  0  0  0  0  0  0  0  0
   -2.5656    3.2064    1.4541 H   0  0  0  0  0  0  0  0  0  0  0  0
    2.3766    0.2493   -0.0227 N   0  0  0  0  0  0  0  0  0  0  0  0
    3.0960    0.1690    0.6824 H   0  0  0  0  0  0  0  0  0  0  0  0
    2.8035    0.5607   -1.3651 C   0  0  1  0  0  0  0  0  0  0  0  0
    2.1799    1.3401   -1.8033 H   0  0  0  0  0  0  0  0  0  0  0  0
    3.8277    0.9243   -1.3304 H   0  0  0  0  0  0  0  0  0  0  0  0
    2.7735   -0.3211   -2.0129 H   0  0  0  0  0  0  0  0  0  0  0  0
   -0.9749   -2.3399   -0.3297 C   0  0  0  0  0  0  0  0  0  0  0  0
   -1.8755   -3.0210    0.1105 O   0  0  0  0  0  0  0  0  0  0  0  0
    0.2342   -2.9219   -1.0305 C   0  0  2  0  0  0  0  0  0  0  0  0
    1.1421   -2.6301   -0.5071 H   0  0  0  0  0  0  0  0  0  0  0  0
    0.2845   -2.5722   -2.0599 H   0  0  0  0  0  0  0  0  0  0  0  0
    0.1492   -4.0045   -1.0259 H   0  0  0  0  0  0  0  0  0  0  0  0
  1  9  1  0
  2 10  1  6
  2  1  1  0
  2  3  1  0
  3  4  2  0
  5  2  1  0
  5  6  1  0
  6  7  1  0
  6 13  1  1
  7 15  1  1
  7 14  1  0
  8  6  1  0
  8 19  1  1
  5 11  1  6
 12  5  1  0
 16  7  1  0
 17  8  1  0
 18  8  1  0
 20  3  1  0
 20 21  1  0
 22 24  1  1
 22 20  1  0
 23 22  1  0
 25 22  1  0
 26  1  1  0
 26 27  2  0
 28 31  1  6
 28 29  1  0
 28 26  1  0
 30 28  1  0
M  END
$$$$
