-42.46185875
     RDKit          3D

 31 30  0  0  1  0  0  0  0  0999 V2000
   -0.5917   -1.2705    0.5734 N   0  0  0  0  0  0  0  0  0  0  0  0
   -0.4312    0.0076   -0.0793 C   0  0  2  0  0  0  0  0  0  0  0  0
    0.9401    0.1785   -0.7535 C   0  0  0  0  0  0  0  0  0  0  0  0
    1.0188    0.6555   -1.8706 O   0  0  0  0  0  0  0  0  0  0  0  0
   -0.7094    1.1370    0.9214 C   0  0  2  0  0  0  0  0  0  0  0  0
   -0.4868    2.5483    0.3629 C   0  0  1  0  0  0  0  0  0  0  0  0
   -1.3550    2.8176   -0.8632 C   0  0  1  0  0  0  0  0  0  0  0  0
   -0.7811    3.5709    1.4594 C   0  0  2  0  0  0  0  0  0  0  0  0
   -0.5843   -1.2820    1.5839 H   0  0  0  0  0  0  0  0  0  0  0  0
   -1.1588    0.0825   -0.8966 H   0  0  0  0  0  0  0  0  0  0  0  0
   -0.0703    1.0083    1.7986 H   0  0  0  0  0  0  0  0  0  0  0  0
   -1.7474    1.0437    1.2520 H   0  0  0  0  0  0  0  0  0  0  0  0
    0.5631    2.6459    0.0676 H   0  0  0  0  0  0  0  0  0  0  0  0
   -2.3976    2.5856   -0.6547 H   0  0  0  0  0  0  0  0  0  0  0  0
   -1.2870    3.8660   -1.1428 H   0  0  0  0  0  0  0  0  0  0  0  0
   -1.0169    2.2242   -1.7077 H   0  0  0  0  0  0  0  0  0  0  0  0
   -0.5823    4.5777    1.1013 H   0  0  0  0  0  0  0  0  0  0  0  0
   -0.1613    3.3926    2.3357 H   0  0  0  0  0  0  0  0  0  0  0  0
   -1.8254    3.5145    1.7595 H   0  0  0  0  0  0  0  0  0  0  0  0
    2.0559   -0.1927   -0.0953 N   0  0  0  0  0  0  0  0  0  0  0  0
    2.8947   -0.0806   -0.6491 H   0  0  0  0  0  0  0  0  0  0  0  0
    2.2183   -0.8459    1.1822 C   0  0  1  0  0  0  0  0  0  0  0  0
    1.6266   -0.3509    1.9509 H   0  0  0  0  0  0  0  0  0  0  0  0
    1.9325   -1.9003    1.1386 H   0  0  0  0  0  0  0  0  0  0  0  0
    3.2658   -0.7834    1.4699 H   0  0  0  0  0  0  0  0  0  0  0  0
   -0.6475   -2.4959   -0.0063 C   0  0  0  0  0  0  0  0  0  0  0  0
   -0.6714   -3.4959    0.6824 O   0  0  0  0  0  0  0  0  0  0  0  0
   -0.6923   -2.5166   -1.5136 C   0  0  2  0  0  0  0  0  0  0  0  0
    0.1385   -1.9596   -1.9390 H   0  0  0  0  0  0  0  0  0  0  0  0
   -1.6203   -2.0640   -1.8582 H   0  0  0  0  0  0  0  0  0  0  0  0
   -0.6533   -3.5478   -1.8526 H   0  0  0  0  0  0  0  0  0  0  0  0
  1  9  1  0
  2 10  1  6
  2  1  1  0
  2  5  1  0
  3 20  1  0
  3  2  1  0
  4  3  2  0
  5 12  1  1
  5 11  1  0
  6  5  1  0
  6  8  1  0
  7 14  1  1
  7  6  1  0
  8 19  1  1
  8 18  1  0
  6 13  1  6
 15  7  1  0
 16  7  1  0
 17  8  1  0
 20 22  1  0
 21 20  1  0
 22 25  1  1
 22 23  1  0
 24 22  1  0
 26  1  1  0
 26 27  2  0
 28 26  1  0
 28 29  1  6
 30 28  1  0
 31 28  1  0
M  END
$$$$
