-42.46057250
     RDKit          3D

 31 30  0  0  1  0  0  0  0  0999 V2000
   -0.5632   -1.2553    0.5672 N   0  0  0  0  0  0  0  0  0  0  0  0
   -0.3969    0.0103   -0.1140 C   0  0  2  0  0  0  0  0  0  0  0  0
    0.9842    0.1168   -0.7794 C   0  0  0  0  0  0  0  0  0  0  0  0
    1.0906    0.4726   -1.9389 O   0  0  0  0  0  0  0  0  0  0  0  0
   -0.6872    1.1658    0.8573 C   0  0  2  0  0  0  0  0  0  0  0  0
   -1.1534    2.4663    0.1883 C   0  0  1  0  0  0  0  0  0  0  0  0
   -1.7793    3.3785    1.2437 C   0  0  1  0  0  0  0  0  0  0  0  0
   -0.0112    3.1931   -0.5156 C   0  0  2  0  0  0  0  0  0  0  0  0
   -0.5246   -1.2491    1.5770 H   0  0  0  0  0  0  0  0  0  0  0  0
   -1.1199    0.0653   -0.9386 H   0  0  0  0  0  0  0  0  0  0  0  0
    0.1919    1.3829    1.4672 H   0  0  0  0  0  0  0  0  0  0  0  0
   -1.4848    0.8259    1.5240 H   0  0  0  0  0  0  0  0  0  0  0  0
   -1.9208    2.2199   -0.5532 H   0  0  0  0  0  0  0  0  0  0  0  0
   -2.1201    4.3046    0.7879 H   0  0  0  0  0  0  0  0  0  0  0  0
   -2.6324    2.8984    1.7182 H   0  0  0  0  0  0  0  0  0  0  0  0
   -1.0507    3.6256    2.0132 H   0  0  0  0  0  0  0  0  0  0  0  0
   -0.3696    4.1280   -0.9399 H   0  0  0  0  0  0  0  0  0  0  0  0
    0.3987    2.5923   -1.3206 H   0  0  0  0  0  0  0  0  0  0  0  0
    0.7851    3.4228    0.1902 H   0  0  0  0  0  0  0  0  0  0  0  0
    2.0842   -0.1875   -0.0629 N   0  0  0  0  0  0  0  0  0  0  0  0
    2.9330   -0.1416   -0.6112 H   0  0  0  0  0  0  0  0  0  0  0  0
    2.2168   -0.7496    1.2604 C   0  0  1  0  0  0  0  0  0  0  0  0
    1.5643   -0.2410    1.9679 H   0  0  0  0  0  0  0  0  0  0  0  0
    1.9856   -1.8185    1.2709 H   0  0  0  0  0  0  0  0  0  0  0  0
    3.2454   -0.6147    1.5899 H   0  0  0  0  0  0  0  0  0  0  0  0
   -0.6314   -2.4940    0.0166 C   0  0  0  0  0  0  0  0  0  0  0  0
   -0.6393   -3.4759    0.7314 O   0  0  0  0  0  0  0  0  0  0  0  0
   -0.7182   -2.5529   -1.4873 C   0  0  2  0  0  0  0  0  0  0  0  0
   -0.6963   -3.5929   -1.7999 H   0  0  0  0  0  0  0  0  0  0  0  0
    0.1042   -2.0142   -1.9506 H   0  0  0  0  0  0  0  0  0  0  0  0
   -1.6524   -2.1020   -1.8172 H   0  0  0  0  0  0  0  0  0  0  0  0
  1  9  1  0
  2 10  1  6
  2  1  1  0
  2  5  1  0
  3  2  1  0
  3 20  1  0
  4  3  2  0
  5 11  1  1
  5 12  1  0
  6  5  1  0
  6  7  1  0
  7 15  1  1
  7 16  1  0
  8  6  1  0
  8 19  1  1
  6 13  1  6
 14  7  1  0
 17  8  1  0
 18  8  1  0
 20 22  1  0
 21 20  1  0
 22 24  1  6
 22 25  1  0
 22 23  1  0
 26  1  1  0
 26 27  2  0
 28 26  1  0
 28 29  1  1
 30 28  1  0
 31 28  1  0
M  END
$$$$
