-35.86512804
     RDKit          3D

 13 12  0  0  0  0  0  0  0  0999 V2000
   -1.4250    0.9842    1.1456 O   0  0  0  0  0  0  0  0  0  0  0  0
   -1.4213   -0.2096    0.1346 P   0  0  2  0  0  0  0  0  0  0  0  0
   -2.5083   -1.1585    0.2328 O   0  0  0  0  0  0  0  0  0  0  0  0
    0.0586   -0.8579    0.2771 O   0  0  0  0  0  0  0  0  0  0  0  0
    1.3305    0.1038   -0.0073 P   0  0  2  0  0  0  0  0  0  0  0  0
    1.1199    1.4684    0.4670 O   0  0  0  0  0  0  0  0  0  0  0  0
    1.6175   -0.0634   -1.5562 O   0  0  0  0  0  0  0  0  0  0  0  0
    2.5028   -0.6793    0.6653 O   0  0  0  0  0  0  0  0  0  0  0  0
   -1.2513    0.4615   -1.3255 O   0  0  0  0  0  0  0  0  0  0  0  0
   -0.5793    1.4710    1.1087 H   0  0  0  0  0  0  0  0  0  0  0  0
    1.0438    0.4892   -2.0884 H   0  0  0  0  0  0  0  0  0  0  0  0
    2.6034   -1.5778    0.3483 H   0  0  0  0  0  0  0  0  0  0  0  0
   -2.0879    0.4083   -1.7894 H   0  0  0  0  0  0  0  0  0  0  0  0
  2  3  2  0
  2  4  1  1
  2  1  1  0
  5  4  1  6
  5  6  2  0
  5  8  1  0
  7  5  1  0
  9  2  1  0
 10  1  1  0
 11  7  1  0
 12  8  1  0
 13  9  1  0
M  END
$$$$
