Coordinates from ORCA-job xaf
     RDKit          3D

 26 25  0  0  0  0  0  0  0  0999 V2000
   -0.6010   -1.0070    0.0680 N   0  0  0  0  0  0  0  0  0  0  0  0
    0.1040   -0.0460    0.9020 C   0  0  2  0  0  0  0  0  0  0  0  0
    0.1890    1.3590    0.2770 C   0  0  0  0  0  0  0  0  0  0  0  0
    1.2690    1.9340    0.1120 O   0  0  0  0  0  0  0  0  0  0  0  0
    1.5010   -0.5850    1.2080 C   0  0  2  0  0  0  0  0  0  0  0  0
    2.2010   -1.0340   -0.0610 C   0  0  0  0  0  0  0  0  0  0  0  0
    1.9400   -2.1250   -0.5700 O   0  0  0  0  0  0  0  0  0  0  0  0
    3.1070   -0.1680   -0.5710 N   0  0  0  0  0  0  0  0  0  0  0  0
   -0.0280   -1.7210   -0.3690 H   0  0  0  0  0  0  0  0  0  0  0  0
   -0.4600    0.0580    1.8330 H   0  0  0  0  0  0  0  0  0  0  0  0
    1.4060   -1.4630    1.8430 H   0  0  0  0  0  0  0  0  0  0  0  0
    2.0670    0.1830    1.7270 H   0  0  0  0  0  0  0  0  0  0  0  0
    2.9670    0.8040   -0.3340 H   0  0  0  0  0  0  0  0  0  0  0  0
    3.4550   -0.3860   -1.4900 H   0  0  0  0  0  0  0  0  0  0  0  0
   -1.0070    1.8860   -0.0230 N   0  0  0  0  0  0  0  0  0  0  0  0
   -1.8240    1.3270    0.2110 H   0  0  0  0  0  0  0  0  0  0  0  0
   -1.1470    3.2000   -0.6120 C   0  0  1  0  0  0  0  0  0  0  0  0
   -0.1530    3.5830   -0.8170 H   0  0  0  0  0  0  0  0  0  0  0  0
   -1.7120    3.1440   -1.5410 H   0  0  0  0  0  0  0  0  0  0  0  0
   -1.6560    3.8790    0.0690 H   0  0  0  0  0  0  0  0  0  0  0  0
   -1.9470   -1.1040    0.0380 C   0  0  0  0  0  0  0  0  0  0  0  0
   -2.6840   -0.2830    0.5940 O   0  0  0  0  0  0  0  0  0  0  0  0
   -2.5010   -2.2800   -0.7220 C   0  0  1  0  0  0  0  0  0  0  0  0
   -1.7320   -2.8680   -1.2150 H   0  0  0  0  0  0  0  0  0  0  0  0
   -3.0470   -2.9120   -0.0250 H   0  0  0  0  0  0  0  0  0  0  0  0
   -3.2110   -1.9140   -1.4600 H   0  0  0  0  0  0  0  0  0  0  0  0
  1  9  1  0
  1 21  1  0
  1  2  1  0
  2  3  1  0
  2  5  1  0
  2 10  1  1
  3 15  1  0
  3  4  1  0
  5  6  1  0
  5 12  1  1
  5 11  1  0
  6  8  1  0
  6  7  1  0
  8 14  1  0
  8 13  1  0
 15 17  1  0
 15 16  1  0
 17 19  1  6
 17 18  1  0
 17 20  1  0
 21 23  1  0
 21 22  1  0
 23 26  1  6
 23 24  1  0
 23 25  1  0
M  END
$$$$
