Coordinates from ORCA-job xae
     RDKit          3D

 26 25  0  0  0  0  0  0  0  0999 V2000
   -1.1580   -0.9570   -0.5460 N   0  0  0  0  0  0  0  0  0  0  0  0
    0.1050   -0.4760   -0.0010 C   0  0  2  0  0  0  0  0  0  0  0  0
    0.2410    1.0270   -0.2860 C   0  0  0  0  0  0  0  0  0  0  0  0
    0.9890    1.4710   -1.1610 O   0  0  0  0  0  0  0  0  0  0  0  0
    1.2540   -1.2690   -0.6060 C   0  0  2  0  0  0  0  0  0  0  0  0
    2.5390   -1.0650    0.1800 C   0  0  0  0  0  0  0  0  0  0  0  0
    2.8540   -1.8160    1.0920 O   0  0  0  0  0  0  0  0  0  0  0  0
    3.2870   -0.0050   -0.2230 N   0  0  0  0  0  0  0  0  0  0  0  0
   -1.1560   -1.3720   -1.4620 H   0  0  0  0  0  0  0  0  0  0  0  0
    0.0620   -0.6350    1.0770 H   0  0  0  0  0  0  0  0  0  0  0  0
    1.3810   -0.9750   -1.6480 H   0  0  0  0  0  0  0  0  0  0  0  0
    1.0160   -2.3280   -0.5420 H   0  0  0  0  0  0  0  0  0  0  0  0
    4.0640    0.2490    0.3620 H   0  0  0  0  0  0  0  0  0  0  0  0
    2.8400    0.7020   -0.7880 H   0  0  0  0  0  0  0  0  0  0  0  0
   -0.5440    1.7930    0.4910 N   0  0  0  0  0  0  0  0  0  0  0  0
   -1.2200    1.3070    1.0700 H   0  0  0  0  0  0  0  0  0  0  0  0
   -0.6340    3.2240    0.2910 C   0  0  1  0  0  0  0  0  0  0  0  0
   -1.3580    3.4800   -0.4830 H   0  0  0  0  0  0  0  0  0  0  0  0
   -0.9260    3.6980    1.2230 H   0  0  0  0  0  0  0  0  0  0  0  0
    0.3400    3.5940   -0.0170 H   0  0  0  0  0  0  0  0  0  0  0  0
   -2.3300   -0.8290    0.1240 C   0  0  0  0  0  0  0  0  0  0  0  0
   -2.4040   -0.2560    1.2110 O   0  0  0  0  0  0  0  0  0  0  0  0
   -3.5370   -1.4380   -0.5390 C   0  0  1  0  0  0  0  0  0  0  0  0
   -4.2740   -0.6560   -0.7080 H   0  0  0  0  0  0  0  0  0  0  0  0
   -3.3090   -1.9290   -1.4810 H   0  0  0  0  0  0  0  0  0  0  0  0
   -3.9740   -2.1600    0.1460 H   0  0  0  0  0  0  0  0  0  0  0  0
  1  9  1  0
  1  2  1  0
  1 21  1  0
  2  5  1  0
  2  3  1  0
  2 10  1  1
  3  4  1  0
  3 15  1  0
  5 11  1  6
  5 12  1  0
  5  6  1  0
  6  8  1  0
  6  7  1  0
  8 14  1  0
  8 13  1  0
 15 17  1  0
 15 16  1  0
 17 18  1  6
 17 20  1  0
 17 19  1  0
 21 23  1  0
 21 22  1  0
 23 25  1  6
 23 24  1  0
 23 26  1  0
M  END
$$$$
