Coordinates from ORCA-job xab
     RDKit          3D

 26 25  0  0  0  0  0  0  0  0999 V2000
   -0.1750    0.8210   -0.4560 N   0  0  0  0  0  0  0  0  0  0  0  0
   -0.0300   -0.4770    0.1900 C   0  0  2  0  0  0  0  0  0  0  0  0
    1.3420   -1.1070   -0.1130 C   0  0  0  0  0  0  0  0  0  0  0  0
    1.4520   -2.1260   -0.7880 O   0  0  0  0  0  0  0  0  0  0  0  0
   -1.1240   -1.4200   -0.3060 C   0  0  2  0  0  0  0  0  0  0  0  0
   -2.4900   -0.7960   -0.1660 C   0  0  0  0  0  0  0  0  0  0  0  0
   -2.8590    0.1210   -0.8960 O   0  0  0  0  0  0  0  0  0  0  0  0
   -3.2630   -1.2780    0.8380 N   0  0  0  0  0  0  0  0  0  0  0  0
   -0.9670    0.9010   -1.0840 H   0  0  0  0  0  0  0  0  0  0  0  0
   -0.1070   -0.3260    1.2710 H   0  0  0  0  0  0  0  0  0  0  0  0
   -1.0370   -2.3630    0.2290 H   0  0  0  0  0  0  0  0  0  0  0  0
   -0.9460   -1.6290   -1.3590 H   0  0  0  0  0  0  0  0  0  0  0  0
   -2.9880   -2.0780    1.3750 H   0  0  0  0  0  0  0  0  0  0  0  0
   -4.1880   -0.9020    0.9520 H   0  0  0  0  0  0  0  0  0  0  0  0
    2.3690   -0.4350    0.4440 N   0  0  0  0  0  0  0  0  0  0  0  0
    2.1420    0.4420    0.9030 H   0  0  0  0  0  0  0  0  0  0  0  0
    3.7430   -0.8140    0.2040 C   0  0  1  0  0  0  0  0  0  0  0  0
    4.3140   -0.7570    1.1280 H   0  0  0  0  0  0  0  0  0  0  0  0
    3.7510   -1.8360   -0.1630 H   0  0  0  0  0  0  0  0  0  0  0  0
    4.2140   -0.1720   -0.5400 H   0  0  0  0  0  0  0  0  0  0  0  0
    0.2590    1.9580    0.1440 C   0  0  0  0  0  0  0  0  0  0  0  0
    1.0120    1.9480    1.1200 O   0  0  0  0  0  0  0  0  0  0  0  0
   -0.2420    3.2330   -0.4850 C   0  0  1  0  0  0  0  0  0  0  0  0
   -1.3290    3.2790   -0.4220 H   0  0  0  0  0  0  0  0  0  0  0  0
    0.1920    4.0780    0.0350 H   0  0  0  0  0  0  0  0  0  0  0  0
    0.0330    3.2680   -1.5380 H   0  0  0  0  0  0  0  0  0  0  0  0
  1  9  1  0
  1 21  1  0
  1  2  1  0
  2  5  1  0
  2  3  1  0
  2 10  1  1
  3  4  1  0
  3 15  1  0
  5 12  1  6
  5  6  1  0
  5 11  1  0
  6  7  1  0
  6  8  1  0
  8 14  1  0
  8 13  1  0
 15 17  1  0
 15 16  1  0
 17 20  1  6
 17 19  1  0
 17 18  1  0
 21 23  1  0
 21 22  1  0
 23 26  1  6
 23 24  1  0
 23 25  1  0
M  END
$$$$
