 energy: -14.633773664006 gnorm: 0.000029661520 xtb: 6.5.1 (9af7eec)
     RDKit          3D

 10  9  0  0  0  0  0  0  0  0999 V2000
    0.7128    0.4694    0.4269 N   0  0  0  0  0  0  0  0  0  0  0  0
    1.8753   -0.2935    0.2090 N   0  0  0  0  0  0  0  0  0  0  0  0
    2.3793    0.1248   -0.5672 H   0  0  0  0  0  0  0  0  0  0  0  0
    1.6693   -1.2651   -0.0371 H   0  0  0  0  0  0  0  0  0  0  0  0
    0.3770    0.2604    1.3741 H   0  0  0  0  0  0  0  0  0  0  0  0
   -0.2921    0.2702   -0.5566 N   0  0  0  0  0  0  0  0  0  0  0  0
   -1.2066   -0.7845   -0.3464 N   0  0  0  0  0  0  0  0  0  0  0  0
   -0.8240    1.1340   -0.6344 H   0  0  0  0  0  0  0  0  0  0  0  0
   -1.5721   -0.8089    0.6105 H   0  0  0  0  0  0  0  0  0  0  0  0
   -0.7534   -1.6716   -0.5457 H   0  0  0  0  0  0  0  0  0  0  0  0
  1  5  1  0
  1  6  1  0
  1  2  1  0
  2  3  1  0
  2  4  1  0
  6  8  1  0
  6  7  1  0
  7 10  1  0
  7  9  1  0
M  END
$$$$
