-39.29650171
     RDKit          3D

 28 27  0  0  1  0  0  0  0  0999 V2000
   -0.7474    0.3365   -0.2926 N   0  0  0  0  0  0  0  0  0  0  0  0
    0.4071   -0.3847    0.1905 C   0  0  2  0  0  0  0  0  0  0  0  0
    1.6792    0.2776   -0.3702 C   0  0  0  0  0  0  0  0  0  0  0  0
    2.4714   -0.3060   -1.0810 O   0  0  0  0  0  0  0  0  0  0  0  0
    0.3752   -1.8832   -0.1930 C   0  0  1  0  0  0  0  0  0  0  0  0
   -0.6297   -2.6480    0.6636 C   0  0  2  0  0  0  0  0  0  0  0  0
    0.0614   -2.0844   -1.6741 C   0  0  1  0  0  0  0  0  0  0  0  0
   -0.7815    0.4677   -1.2952 H   0  0  0  0  0  0  0  0  0  0  0  0
    0.4436   -0.3015    1.2815 H   0  0  0  0  0  0  0  0  0  0  0  0
    1.3799   -2.2715   -0.0002 H   0  0  0  0  0  0  0  0  0  0  0  0
   -0.3963   -2.5555    1.7229 H   0  0  0  0  0  0  0  0  0  0  0  0
   -0.6075   -3.7038    0.4051 H   0  0  0  0  0  0  0  0  0  0  0  0
   -1.6384   -2.2795    0.4869 H   0  0  0  0  0  0  0  0  0  0  0  0
    0.7657   -1.5306   -2.2880 H   0  0  0  0  0  0  0  0  0  0  0  0
    0.1484   -3.1384   -1.9255 H   0  0  0  0  0  0  0  0  0  0  0  0
   -0.9533   -1.7655   -1.9040 H   0  0  0  0  0  0  0  0  0  0  0  0
    1.8841    1.5698   -0.0390 N   0  0  0  0  0  0  0  0  0  0  0  0
    2.7232    1.9628   -0.4418 H   0  0  0  0  0  0  0  0  0  0  0  0
    1.1273    2.4101    0.8564 C   0  0  1  0  0  0  0  0  0  0  0  0
    1.0586    1.9592    1.8497 H   0  0  0  0  0  0  0  0  0  0  0  0
    1.6361    3.3660    0.9519 H   0  0  0  0  0  0  0  0  0  0  0  0
    0.1189    2.5902    0.4794 H   0  0  0  0  0  0  0  0  0  0  0  0
   -1.8674    0.7418    0.3542 C   0  0  0  0  0  0  0  0  0  0  0  0
   -2.7629    1.2794   -0.2655 O   0  0  0  0  0  0  0  0  0  0  0  0
   -1.9262    0.5323    1.8513 C   0  0  2  0  0  0  0  0  0  0  0  0
   -1.1485    1.1055    2.3504 H   0  0  0  0  0  0  0  0  0  0  0  0
   -1.8104   -0.5175    2.1031 H   0  0  0  0  0  0  0  0  0  0  0  0
   -2.8948    0.8783    2.2012 H   0  0  0  0  0  0  0  0  0  0  0  0
  1  2  1  0
  1 23  1  0
  2  9  1  1
  3 17  1  0
  3  2  1  0
  4  3  2  0
  5 10  1  6
  5  2  1  0
  5  6  1  0
  6 11  1  1
  7  5  1  0
  8  1  1  0
 12  6  1  0
 13  6  1  0
  7 14  1  6
 15  7  1  0
 16  7  1  0
 17 19  1  0
 18 17  1  0
 19 21  1  1
 19 20  1  0
 22 19  1  0
 23 25  1  0
 24 23  2  0
 25 27  1  6
 25 28  1  0
 25 26  1  0
M  END
$$$$
