-39.29619219
     RDKit          3D

 28 27  0  0  1  0  0  0  0  0999 V2000
   -0.7826    0.1213    0.8612 N   0  0  0  0  0  0  0  0  0  0  0  0
    0.3910   -0.5523    0.3391 C   0  0  2  0  0  0  0  0  0  0  0  0
    1.3017    0.4429   -0.3999 C   0  0  0  0  0  0  0  0  0  0  0  0
    1.6441    0.3023   -1.5574 O   0  0  0  0  0  0  0  0  0  0  0  0
    0.0702   -1.7792   -0.5408 C   0  0  1  0  0  0  0  0  0  0  0  0
    1.3236   -2.6365   -0.7013 C   0  0  2  0  0  0  0  0  0  0  0  0
   -1.0599   -2.6031    0.0710 C   0  0  1  0  0  0  0  0  0  0  0  0
   -0.9597    0.0199    1.8509 H   0  0  0  0  0  0  0  0  0  0  0  0
    0.9558   -0.9082    1.2097 H   0  0  0  0  0  0  0  0  0  0  0  0
   -0.2294   -1.4274   -1.5306 H   0  0  0  0  0  0  0  0  0  0  0  0
    1.1085   -3.4933   -1.3345 H   0  0  0  0  0  0  0  0  0  0  0  0
    1.6678   -3.0023    0.2649 H   0  0  0  0  0  0  0  0  0  0  0  0
    2.1187   -2.0603   -1.1650 H   0  0  0  0  0  0  0  0  0  0  0  0
   -1.2734   -3.4620   -0.5600 H   0  0  0  0  0  0  0  0  0  0  0  0
   -0.7756   -2.9670    1.0569 H   0  0  0  0  0  0  0  0  0  0  0  0
   -1.9704   -2.0172    0.1689 H   0  0  0  0  0  0  0  0  0  0  0  0
    1.7305    1.5016    0.3172 N   0  0  0  0  0  0  0  0  0  0  0  0
    2.2842    2.1588   -0.2149 H   0  0  0  0  0  0  0  0  0  0  0  0
    1.4191    1.8675    1.6772 C   0  0  1  0  0  0  0  0  0  0  0  0
    1.4648    0.9956    2.3301 H   0  0  0  0  0  0  0  0  0  0  0  0
    2.1559    2.5905    2.0210 H   0  0  0  0  0  0  0  0  0  0  0  0
    0.4251    2.3155    1.7575 H   0  0  0  0  0  0  0  0  0  0  0  0
   -1.7395    0.8557    0.2356 C   0  0  0  0  0  0  0  0  0  0  0  0
   -2.6166    1.3683    0.9034 O   0  0  0  0  0  0  0  0  0  0  0  0
   -1.6770    0.9794   -1.2638 C   0  0  2  0  0  0  0  0  0  0  0  0
   -2.1390    0.0976   -1.7050 H   0  0  0  0  0  0  0  0  0  0  0  0
   -0.6619    1.0619   -1.6347 H   0  0  0  0  0  0  0  0  0  0  0  0
   -2.2535    1.8506   -1.5638 H   0  0  0  0  0  0  0  0  0  0  0  0
  1  8  1  0
  2  1  1  0
  2  9  1  1
  3 17  1  0
  3  2  1  0
  4  3  2  0
  5  7  1  0
  5  2  1  0
  6  5  1  0
  6 12  1  1
  7 16  1  1
  7 15  1  0
  5 10  1  6
 11  6  1  0
 13  6  1  0
 14  7  1  0
 17 19  1  0
 18 17  1  0
 19 22  1  6
 19 21  1  0
 19 20  1  0
 23  1  1  0
 23 24  2  0
 25 23  1  0
 25 26  1  6
 27 25  1  0
 28 25  1  0
M  END
$$$$
