-39.29601965
     RDKit          3D

 28 27  0  0  1  0  0  0  0  0999 V2000
   -0.8327    0.0411    0.8349 N   0  0  0  0  0  0  0  0  0  0  0  0
    0.3718   -0.5804    0.3204 C   0  0  2  0  0  0  0  0  0  0  0  0
    1.2736    0.4522   -0.3711 C   0  0  0  0  0  0  0  0  0  0  0  0
    1.6418    0.3515   -1.5232 O   0  0  0  0  0  0  0  0  0  0  0  0
    0.1021   -1.7940   -0.5979 C   0  0  1  0  0  0  0  0  0  0  0  0
    1.3780   -2.6200   -0.7424 C   0  0  2  0  0  0  0  0  0  0  0  0
   -1.0303   -2.6555   -0.0444 C   0  0  1  0  0  0  0  0  0  0  0  0
   -1.1581   -0.3017    1.7289 H   0  0  0  0  0  0  0  0  0  0  0  0
    0.9278   -0.9452    1.1941 H   0  0  0  0  0  0  0  0  0  0  0  0
   -0.1787   -1.4272   -1.5887 H   0  0  0  0  0  0  0  0  0  0  0  0
    1.6985   -3.0063    0.2240 H   0  0  0  0  0  0  0  0  0  0  0  0
    2.1747   -2.0138   -1.1631 H   0  0  0  0  0  0  0  0  0  0  0  0
    1.2022   -3.4623   -1.4065 H   0  0  0  0  0  0  0  0  0  0  0  0
   -0.7820   -3.0202    0.9511 H   0  0  0  0  0  0  0  0  0  0  0  0
   -1.9619   -2.0975    0.0098 H   0  0  0  0  0  0  0  0  0  0  0  0
   -1.1879   -3.5146   -0.6913 H   0  0  0  0  0  0  0  0  0  0  0  0
    1.6769    1.4893    0.3929 N   0  0  0  0  0  0  0  0  0  0  0  0
    2.2436    2.1658   -0.0996 H   0  0  0  0  0  0  0  0  0  0  0  0
    1.3289    1.7997    1.7577 C   0  0  1  0  0  0  0  0  0  0  0  0
    0.3224    2.2200    1.8335 H   0  0  0  0  0  0  0  0  0  0  0  0
    1.3784    0.9065    2.3807 H   0  0  0  0  0  0  0  0  0  0  0  0
    2.0408    2.5263    2.1435 H   0  0  0  0  0  0  0  0  0  0  0  0
   -1.7405    0.8507    0.2283 C   0  0  0  0  0  0  0  0  0  0  0  0
   -2.7506    1.1596    0.8292 O   0  0  0  0  0  0  0  0  0  0  0  0
   -1.4171    1.3723   -1.1476 C   0  0  2  0  0  0  0  0  0  0  0  0
   -0.6999    2.1874   -1.0695 H   0  0  0  0  0  0  0  0  0  0  0  0
   -2.3307    1.7609   -1.5902 H   0  0  0  0  0  0  0  0  0  0  0  0
   -0.9946    0.6052   -1.7875 H   0  0  0  0  0  0  0  0  0  0  0  0
  1  8  1  0
  2  1  1  0
  2  9  1  1
  3  2  1  0
  3 17  1  0
  4  3  2  0
  5  7  1  0
  5  2  1  0
  6  5  1  0
  6 11  1  1
  7 15  1  1
  7 14  1  0
  5 10  1  6
 12  6  1  0
 13  6  1  0
 16  7  1  0
 17 19  1  0
 18 17  1  0
 19 20  1  6
 19 22  1  0
 19 21  1  0
 23 24  2  0
 23  1  1  0
 25 26  1  1
 25 23  1  0
 27 25  1  0
 28 25  1  0
M  END
$$$$
