Coordinates from ORCA-job xak
     RDKit          3D

 22 21  0  0  0  0  0  0  0  0999 V2000
    1.0760    0.5020   -0.5690 N   0  0  0  0  0  0  0  0  0  0  0  0
    1.3050    0.9260   -1.4560 H   0  0  0  0  0  0  0  0  0  0  0  0
    0.0120    1.0900    0.2190 C   0  0  1  0  0  0  0  0  0  0  0  0
    0.3560    1.2890    1.2340 H   0  0  0  0  0  0  0  0  0  0  0  0
   -0.4230    2.4040   -0.4160 C   0  0  1  0  0  0  0  0  0  0  0  0
   -1.2250    0.2010    0.3730 C   0  0  0  0  0  0  0  0  0  0  0  0
   -1.2400    2.8310    0.1590 H   0  0  0  0  0  0  0  0  0  0  0  0
    0.4060    3.1090   -0.4410 H   0  0  0  0  0  0  0  0  0  0  0  0
   -0.7710    2.2320   -1.4360 H   0  0  0  0  0  0  0  0  0  0  0  0
   -2.0790    0.4790    1.2070 O   0  0  0  0  0  0  0  0  0  0  0  0
    2.0220   -0.3920   -0.1230 C   0  0  0  0  0  0  0  0  0  0  0  0
    1.8220   -0.9160    1.2770 C   0  0  2  0  0  0  0  0  0  0  0  0
    2.0330   -0.1310    2.0030 H   0  0  0  0  0  0  0  0  0  0  0  0
    2.5150   -1.7350    1.4330 H   0  0  0  0  0  0  0  0  0  0  0  0
    0.8010   -1.2550    1.4410 H   0  0  0  0  0  0  0  0  0  0  0  0
    2.9550   -0.7300   -0.8350 O   0  0  0  0  0  0  0  0  0  0  0  0
   -1.2970   -0.8430   -0.4830 N   0  0  0  0  0  0  0  0  0  0  0  0
   -0.5210   -0.9720   -1.1100 H   0  0  0  0  0  0  0  0  0  0  0  0
   -2.4210   -1.7520   -0.4960 C   0  0  1  0  0  0  0  0  0  0  0  0
   -2.0870   -2.7810   -0.3810 H   0  0  0  0  0  0  0  0  0  0  0  0
   -3.0620   -1.4860    0.3390 H   0  0  0  0  0  0  0  0  0  0  0  0
   -2.9900   -1.6640   -1.4200 H   0  0  0  0  0  0  0  0  0  0  0  0
  1  2  1  0
  1 11  1  0
  1  3  1  0
  3  5  1  0
  3  6  1  0
  3  4  1  1
  5  9  1  6
  5  8  1  0
  5  7  1  0
  6 17  1  0
  6 10  1  0
 11 16  1  0
 11 12  1  0
 12 14  1  1
 12 15  1  0
 12 13  1  0
 17 18  1  0
 17 19  1  0
 19 22  1  6
 19 20  1  0
 19 21  1  0
M  END
$$$$
