 energy: -92.466970170701 gnorm: 0.000039036864 xtb: 6.5.1 (9af7eec)
     RDKit          3D

 74 76  0  0  0  0  0  0  0  0999 V2000
    0.1480    0.6826   -0.5064 C   0  0  1  0  0  0  0  0  0  0  0  0
    1.3339    1.6417   -0.6077 C   0  0  2  0  0  0  0  0  0  0  0  0
    2.5871    0.9645   -0.0200 C   0  0  1  0  0  0  0  0  0  0  0  0
    3.2911    0.0322   -1.0106 C   0  0  2  0  0  0  0  0  0  0  0  0
    4.1139    0.8131   -2.0310 C   0  0  1  0  0  0  0  0  0  0  0  0
    4.7507   -0.0165   -3.1574 C   0  0  2  0  0  0  0  0  0  0  0  0
    3.6910   -0.6331   -4.0777 C   0  0  1  0  0  0  0  0  0  0  0  0
    5.6686   -1.1143   -2.6082 C   0  0  1  0  0  0  0  0  0  0  0  0
    5.5227    0.9289   -3.8900 O   0  0  0  0  0  0  0  0  0  0  0  0
    1.1277    3.0172    0.0611 C   0  0  2  0  0  0  0  0  0  0  0  0
    0.7285    2.9159    1.5465 C   0  0  2  0  0  0  0  0  0  0  0  0
   -0.7445    3.3417    1.6594 C   0  0  2  0  0  0  0  0  0  0  0  0
   -1.2241    3.6198    0.2235 C   0  0  2  0  0  0  0  0  0  0  0  0
    0.0621    3.9603   -0.5573 C   0  0  1  0  0  0  0  0  0  0  0  0
    0.4973    5.4079   -0.2635 C   0  0  1  0  0  0  0  0  0  0  0  0
   -0.6184    6.4254   -0.4687 C   0  0  1  0  0  0  0  0  0  0  0  0
   -1.8155    6.0762    0.4150 C   0  0  2  0  0  0  0  0  0  0  0  0
   -2.2806    4.6779    0.1336 C   0  0  0  0  0  0  0  0  0  0  0  0
   -3.5616    4.4435   -0.1935 C   0  0  0  0  0  0  0  0  0  0  0  0
   -4.1653    3.1664   -0.4651 C   0  0  0  0  0  0  0  0  0  0  0  0
   -5.4261    2.9358   -0.8710 C   0  0  0  0  0  0  0  0  0  0  0  0
   -6.4541    3.9904   -1.1748 C   0  0  1  0  0  0  0  0  0  0  0  0
   -7.0218    3.7901   -2.5852 C   0  0  2  0  0  0  0  0  0  0  0  0
   -7.6302    2.3932   -2.7182 C   0  0  2  0  0  0  0  0  0  0  0  0
   -6.6010    1.2980   -2.4096 C   0  0  2  0  0  0  0  0  0  0  0  0
   -5.8970    1.5613   -1.0897 C   0  0  0  0  0  0  0  0  0  0  0  0
   -5.6819    0.5853   -0.2158 C   0  0  0  0  0  0  0  0  0  0  0  0
   -5.6562    1.1731   -3.4492 O   0  0  0  0  0  0  0  0  0  0  0  0
   -6.0144    3.9404   -3.5727 O   0  0  0  0  0  0  0  0  0  0  0  0
   -0.1357    3.7912   -2.0616 C   0  0  1  0  0  0  0  0  0  0  0  0
    0.4497   -0.3096   -0.8361 H   0  0  0  0  0  0  0  0  0  0  0  0
   -0.2084    0.5993    0.5167 H   0  0  0  0  0  0  0  0  0  0  0  0
   -0.6811    0.9934   -1.1357 H   0  0  0  0  0  0  0  0  0  0  0  0
    1.5297    1.8272   -1.6668 H   0  0  0  0  0  0  0  0  0  0  0  0
    3.3032    1.7220    0.3042 H   0  0  0  0  0  0  0  0  0  0  0  0
    2.3011    0.3894    0.8629 H   0  0  0  0  0  0  0  0  0  0  0  0
    2.5474   -0.5817   -1.5196 H   0  0  0  0  0  0  0  0  0  0  0  0
    3.9498   -0.6354   -0.4527 H   0  0  0  0  0  0  0  0  0  0  0  0
    3.4945    1.5745   -2.5071 H   0  0  0  0  0  0  0  0  0  0  0  0
    4.9247    1.3348   -1.5184 H   0  0  0  0  0  0  0  0  0  0  0  0
    4.1707   -1.1435   -4.9120 H   0  0  0  0  0  0  0  0  0  0  0  0
    3.0838   -1.3559   -3.5416 H   0  0  0  0  0  0  0  0  0  0  0  0
    3.0452    0.1459   -4.4760 H   0  0  0  0  0  0  0  0  0  0  0  0
    5.0954   -1.8626   -2.0696 H   0  0  0  0  0  0  0  0  0  0  0  0
    6.1923   -1.6076   -3.4264 H   0  0  0  0  0  0  0  0  0  0  0  0
    6.4076   -0.6811   -1.9386 H   0  0  0  0  0  0  0  0  0  0  0  0
    5.9469    0.4747   -4.6265 H   0  0  0  0  0  0  0  0  0  0  0  0
    2.0971    3.5200   -0.0238 H   0  0  0  0  0  0  0  0  0  0  0  0
    1.3579    3.5698    2.1512 H   0  0  0  0  0  0  0  0  0  0  0  0
    0.8764    1.9055    1.9215 H   0  0  0  0  0  0  0  0  0  0  0  0
   -0.8376    4.2352    2.2759 H   0  0  0  0  0  0  0  0  0  0  0  0
   -1.3573    2.5675    2.1212 H   0  0  0  0  0  0  0  0  0  0  0  0
   -1.6158    2.6918   -0.1887 H   0  0  0  0  0  0  0  0  0  0  0  0
    0.8366    5.4779    0.7711 H   0  0  0  0  0  0  0  0  0  0  0  0
    1.3440    5.6598   -0.9068 H   0  0  0  0  0  0  0  0  0  0  0  0
   -0.2527    7.4234   -0.2157 H   0  0  0  0  0  0  0  0  0  0  0  0
   -0.9314    6.4460   -1.5139 H   0  0  0  0  0  0  0  0  0  0  0  0
   -2.6270    6.7884    0.2515 H   0  0  0  0  0  0  0  0  0  0  0  0
   -1.5115    6.1586    1.4627 H   0  0  0  0  0  0  0  0  0  0  0  0
   -4.2196    5.3032   -0.2371 H   0  0  0  0  0  0  0  0  0  0  0  0
   -3.5418    2.2945   -0.3287 H   0  0  0  0  0  0  0  0  0  0  0  0
   -7.2771    3.9092   -0.4588 H   0  0  0  0  0  0  0  0  0  0  0  0
   -6.0343    4.9941   -1.0912 H   0  0  0  0  0  0  0  0  0  0  0  0
   -7.8112    4.5417   -2.7629 H   0  0  0  0  0  0  0  0  0  0  0  0
   -7.9892    2.2542   -3.7394 H   0  0  0  0  0  0  0  0  0  0  0  0
   -8.4744    2.3097   -2.0328 H   0  0  0  0  0  0  0  0  0  0  0  0
   -7.1051    0.3252   -2.3599 H   0  0  0  0  0  0  0  0  0  0  0  0
   -5.1703    0.7631    0.7153 H   0  0  0  0  0  0  0  0  0  0  0  0
   -6.0197   -0.4205   -0.3982 H   0  0  0  0  0  0  0  0  0  0  0  0
   -5.3913    2.0718   -3.6977 H   0  0  0  0  0  0  0  0  0  0  0  0
   -5.4992    4.7296   -3.3750 H   0  0  0  0  0  0  0  0  0  0  0  0
   -0.8916    4.4864   -2.4188 H   0  0  0  0  0  0  0  0  0  0  0  0
    0.7927    3.9905   -2.5933 H   0  0  0  0  0  0  0  0  0  0  0  0
   -0.4730    2.7907   -2.3134 H   0  0  0  0  0  0  0  0  0  0  0  0
  1  2  1  0
  2  3  1  0
  3  4  1  0
  4  5  1  0
  5  6  1  0
  6  7  1  0
  6  8  1  0
  6  9  1  6
  2 10  1  0
 10 11  1  0
 11 12  1  0
 12 13  1  0
 14 13  1  1
 14 15  1  0
 15 16  1  0
 16 17  1  0
 17 18  1  0
 18 19  2  0
 19 20  1  0
 20 21  2  0
 21 22  1  0
 22 23  1  0
 23 24  1  0
 24 25  1  0
 25 26  1  0
 26 27  2  0
 25 28  1  0
 23 29  1  0
 14 30  1  0
 14 10  1  0
 18 13  1  0
 26 21  1  0
  1 31  1  6
  1 32  1  0
  1 33  1  0
  2 34  1  6
  3 35  1  1
  3 36  1  0
  4 37  1  6
  4 38  1  0
  5 39  1  6
  5 40  1  0
  7 41  1  6
  7 42  1  0
  7 43  1  0
  8 44  1  1
  8 45  1  0
  8 46  1  0
  9 47  1  0
 10 48  1  1
 11 49  1  1
 11 50  1  0
 12 51  1  1
 12 52  1  0
 13 53  1  6
 15 54  1  1
 15 55  1  0
 16 56  1  1
 16 57  1  0
 17 58  1  1
 17 59  1  0
 19 60  1  0
 20 61  1  0
 22 62  1  1
 22 63  1  0
 23 64  1  6
 24 65  1  6
 24 66  1  0
 25 67  1  1
 27 68  1  0
 27 69  1  0
 28 70  1  0
 29 71  1  0
 30 72  1  6
 30 73  1  0
 30 74  1  0
M  END
$$$$
