 energy: -92.466458977171 gnorm: 0.000045553848 xtb: 6.5.1 (9af7eec)
     RDKit          3D

 74 76  0  0  0  0  0  0  0  0999 V2000
    1.3674    1.6115   -2.4993 C   0  0  1  0  0  0  0  0  0  0  0  0
    1.8256    1.6697   -1.0427 C   0  0  2  0  0  0  0  0  0  0  0  0
    0.9468    0.7311   -0.1911 C   0  0  1  0  0  0  0  0  0  0  0  0
    1.3925   -0.7292   -0.2896 C   0  0  2  0  0  0  0  0  0  0  0  0
    0.3487   -1.7511    0.1727 C   0  0  1  0  0  0  0  0  0  0  0  0
   -0.0788   -1.7255    1.6575 C   0  0  2  0  0  0  0  0  0  0  0  0
    1.1241   -1.5953    2.5985 C   0  0  1  0  0  0  0  0  0  0  0  0
   -0.8329   -3.0221    1.9710 C   0  0  1  0  0  0  0  0  0  0  0  0
   -1.0134   -0.6862    1.9021 O   0  0  0  0  0  0  0  0  0  0  0  0
    1.8310    3.0812   -0.4160 C   0  0  2  0  0  0  0  0  0  0  0  0
    0.4651    3.7908   -0.5075 C   0  0  2  0  0  0  0  0  0  0  0  0
    0.6066    4.9352   -1.5247 C   0  0  2  0  0  0  0  0  0  0  0  0
    2.0345    4.8375   -2.0896 C   0  0  2  0  0  0  0  0  0  0  0  0
    2.8373    4.1148   -0.9881 C   0  0  1  0  0  0  0  0  0  0  0  0
    3.1864    5.0965    0.1460 C   0  0  1  0  0  0  0  0  0  0  0  0
    3.8589    6.3729   -0.3458 C   0  0  1  0  0  0  0  0  0  0  0  0
    2.9616    7.0823   -1.3594 C   0  0  2  0  0  0  0  0  0  0  0  0
    2.6255    6.1562   -2.4903 C   0  0  0  0  0  0  0  0  0  0  0  0
    2.8988    6.5034   -3.7556 C   0  0  0  0  0  0  0  0  0  0  0  0
    2.5976    5.7547   -4.9484 C   0  0  0  0  0  0  0  0  0  0  0  0
    3.0618    6.0447   -6.1744 C   0  0  0  0  0  0  0  0  0  0  0  0
    2.6058    5.2901   -7.3936 C   0  0  1  0  0  0  0  0  0  0  0  0
    2.0395    6.2643   -8.4346 C   0  0  2  0  0  0  0  0  0  0  0  0
    3.0893    7.3156   -8.8005 C   0  0  2  0  0  0  0  0  0  0  0  0
    3.5824    8.0831   -7.5653 C   0  0  2  0  0  0  0  0  0  0  0  0
    4.0128    7.1225   -6.4697 C   0  0  0  0  0  0  0  0  0  0  0  0
    5.1651    7.2682   -5.8280 C   0  0  0  0  0  0  0  0  0  0  0  0
    2.6019    8.9735   -7.0844 O   0  0  0  0  0  0  0  0  0  0  0  0
    0.8884    6.9319   -7.9449 O   0  0  0  0  0  0  0  0  0  0  0  0
    4.1252    3.5097   -1.5407 C   0  0  1  0  0  0  0  0  0  0  0  0
    1.2086    0.5770   -2.7969 H   0  0  0  0  0  0  0  0  0  0  0  0
    0.4318    2.1461   -2.6386 H   0  0  0  0  0  0  0  0  0  0  0  0
    2.1091    2.0324   -3.1722 H   0  0  0  0  0  0  0  0  0  0  0  0
    2.8499    1.2870   -0.9865 H   0  0  0  0  0  0  0  0  0  0  0  0
    1.0015    1.0556    0.8508 H   0  0  0  0  0  0  0  0  0  0  0  0
   -0.0922    0.8126   -0.5167 H   0  0  0  0  0  0  0  0  0  0  0  0
    2.3201   -0.8646    0.2697 H   0  0  0  0  0  0  0  0  0  0  0  0
    1.6162   -0.9594   -1.3340 H   0  0  0  0  0  0  0  0  0  0  0  0
   -0.5585   -1.6233   -0.4235 H   0  0  0  0  0  0  0  0  0  0  0  0
    0.7445   -2.7467   -0.0391 H   0  0  0  0  0  0  0  0  0  0  0  0
    0.7893   -1.6871    3.6291 H   0  0  0  0  0  0  0  0  0  0  0  0
    1.8498   -2.3780    2.3946 H   0  0  0  0  0  0  0  0  0  0  0  0
    1.6093   -0.6285    2.4850 H   0  0  0  0  0  0  0  0  0  0  0  0
   -0.1710   -3.8800    1.8989 H   0  0  0  0  0  0  0  0  0  0  0  0
   -1.2403   -2.9669    2.9767 H   0  0  0  0  0  0  0  0  0  0  0  0
   -1.6586   -3.1451    1.2756 H   0  0  0  0  0  0  0  0  0  0  0  0
   -0.5835    0.1612    1.7484 H   0  0  0  0  0  0  0  0  0  0  0  0
    2.0914    2.9238    0.6369 H   0  0  0  0  0  0  0  0  0  0  0  0
    0.1800    4.1860    0.4679 H   0  0  0  0  0  0  0  0  0  0  0  0
   -0.3181    3.0960   -0.8040 H   0  0  0  0  0  0  0  0  0  0  0  0
    0.4518    5.8981   -1.0400 H   0  0  0  0  0  0  0  0  0  0  0  0
   -0.1281    4.8579   -2.3266 H   0  0  0  0  0  0  0  0  0  0  0  0
    2.0160    4.1820   -2.9590 H   0  0  0  0  0  0  0  0  0  0  0  0
    2.2729    5.3745    0.6738 H   0  0  0  0  0  0  0  0  0  0  0  0
    3.8407    4.5916    0.8615 H   0  0  0  0  0  0  0  0  0  0  0  0
    4.0504    7.0328    0.5035 H   0  0  0  0  0  0  0  0  0  0  0  0
    4.8206    6.1464   -0.8086 H   0  0  0  0  0  0  0  0  0  0  0  0
    3.4541    7.9785   -1.7403 H   0  0  0  0  0  0  0  0  0  0  0  0
    2.0440    7.3979   -0.8543 H   0  0  0  0  0  0  0  0  0  0  0  0
    3.3747    7.4597   -3.9325 H   0  0  0  0  0  0  0  0  0  0  0  0
    1.9067    4.9260   -4.8545 H   0  0  0  0  0  0  0  0  0  0  0  0
    3.4533    4.7643   -7.8426 H   0  0  0  0  0  0  0  0  0  0  0  0
    1.8496    4.5468   -7.1248 H   0  0  0  0  0  0  0  0  0  0  0  0
    1.7676    5.7005   -9.3443 H   0  0  0  0  0  0  0  0  0  0  0  0
    2.6504    8.0295   -9.4997 H   0  0  0  0  0  0  0  0  0  0  0  0
    3.9314    6.8193   -9.2844 H   0  0  0  0  0  0  0  0  0  0  0  0
    4.4345    8.7147   -7.8442 H   0  0  0  0  0  0  0  0  0  0  0  0
    5.4679    6.5864   -5.0511 H   0  0  0  0  0  0  0  0  0  0  0  0
    5.8474    8.0661   -6.0680 H   0  0  0  0  0  0  0  0  0  0  0  0
    1.7603    8.4932   -7.0803 H   0  0  0  0  0  0  0  0  0  0  0  0
    0.2782    6.2808   -7.5834 H   0  0  0  0  0  0  0  0  0  0  0  0
    4.7669    4.2970   -1.9283 H   0  0  0  0  0  0  0  0  0  0  0  0
    4.6653    2.9787   -0.7590 H   0  0  0  0  0  0  0  0  0  0  0  0
    3.9302    2.8208   -2.3565 H   0  0  0  0  0  0  0  0  0  0  0  0
  1  2  1  0
  2  3  1  0
  3  4  1  0
  4  5  1  0
  5  6  1  0
  6  7  1  0
  6  8  1  0
  6  9  1  6
  2 10  1  0
 10 11  1  0
 11 12  1  0
 12 13  1  0
 14 13  1  6
 14 15  1  0
 15 16  1  0
 16 17  1  0
 17 18  1  0
 18 19  2  0
 19 20  1  0
 20 21  2  0
 21 22  1  0
 22 23  1  0
 23 24  1  0
 24 25  1  0
 25 26  1  0
 26 27  2  0
 25 28  1  0
 23 29  1  0
 14 30  1  0
 14 10  1  0
 18 13  1  0
 26 21  1  0
  1 31  1  6
  1 32  1  0
  1 33  1  0
  2 34  1  6
  3 35  1  1
  3 36  1  0
  4 37  1  1
  4 38  1  0
  5 39  1  6
  5 40  1  0
  7 41  1  1
  7 42  1  0
  7 43  1  0
  8 44  1  1
  8 45  1  0
  8 46  1  0
  9 47  1  0
 10 48  1  1
 11 49  1  1
 11 50  1  0
 12 51  1  1
 12 52  1  0
 13 53  1  6
 15 54  1  1
 15 55  1  0
 16 56  1  1
 16 57  1  0
 17 58  1  6
 17 59  1  0
 19 60  1  0
 20 61  1  0
 22 62  1  6
 22 63  1  0
 23 64  1  6
 24 65  1  6
 24 66  1  0
 25 67  1  6
 27 68  1  0
 27 69  1  0
 28 70  1  0
 29 71  1  0
 30 72  1  6
 30 73  1  0
 30 74  1  0
M  END
$$$$
