 energy: -92.465485960478 gnorm: 0.000021180179 xtb: 6.5.1 (9af7eec)
     RDKit          3D

 74 76  0  0  0  0  0  0  0  0999 V2000
   -0.0409    0.6233   -0.4714 C   0  0  1  0  0  0  0  0  0  0  0  0
    1.1254    1.5544   -0.8010 C   0  0  2  0  0  0  0  0  0  0  0  0
    2.4561    0.8827   -0.4149 C   0  0  1  0  0  0  0  0  0  0  0  0
    2.8981   -0.1908   -1.4096 C   0  0  2  0  0  0  0  0  0  0  0  0
    4.2268   -0.8107   -0.9856 C   0  0  1  0  0  0  0  0  0  0  0  0
    4.7685   -1.9255   -1.9024 C   0  0  2  0  0  0  0  0  0  0  0  0
    5.0620   -1.3975   -3.3114 C   0  0  1  0  0  0  0  0  0  0  0  0
    3.8155   -3.1184   -1.9706 C   0  0  1  0  0  0  0  0  0  0  0  0
    5.9677   -2.4339   -1.3277 O   0  0  0  0  0  0  0  0  0  0  0  0
    1.0499    2.9525   -0.1483 C   0  0  2  0  0  0  0  0  0  0  0  0
    0.8954    2.9022    1.3848 C   0  0  2  0  0  0  0  0  0  0  0  0
   -0.5204    3.3984    1.7241 C   0  0  2  0  0  0  0  0  0  0  0  0
   -1.2359    3.5968    0.3791 C   0  0  2  0  0  0  0  0  0  0  0  0
   -0.0905    3.8951   -0.6129 C   0  0  1  0  0  0  0  0  0  0  0  0
    0.4001    5.3444   -0.4250 C   0  0  1  0  0  0  0  0  0  0  0  0
   -0.7172    6.3824   -0.4676 C   0  0  1  0  0  0  0  0  0  0  0  0
   -1.7871    6.0611    0.5781 C   0  0  2  0  0  0  0  0  0  0  0  0
   -2.2853    4.6667    0.3408 C   0  0  0  0  0  0  0  0  0  0  0  0
   -3.5394    4.4412   -0.0559 C   0  0  0  0  0  0  0  0  0  0  0  0
   -4.1343    3.1684   -0.4525 C   0  0  0  0  0  0  0  0  0  0  0  0
   -4.2462    2.0523    0.2734 C   0  0  0  0  0  0  0  0  0  0  0  0
   -3.8289    1.9486    1.7137 C   0  0  1  0  0  0  0  0  0  0  0  0
   -5.0055    1.4623    2.5677 C   0  0  2  0  0  0  0  0  0  0  0  0
   -5.5184    0.1172    2.0495 C   0  0  2  0  0  0  0  0  0  0  0  0
   -5.9531    0.2039    0.5801 C   0  0  2  0  0  0  0  0  0  0  0  0
   -4.8720    0.8408   -0.2741 C   0  0  0  0  0  0  0  0  0  0  0  0
   -4.5457    0.3510   -1.4635 C   0  0  0  0  0  0  0  0  0  0  0  0
   -7.1640    0.9130    0.4437 O   0  0  0  0  0  0  0  0  0  0  0  0
   -6.0759    2.3927    2.5478 O   0  0  0  0  0  0  0  0  0  0  0  0
   -0.5325    3.6950   -2.0594 C   0  0  1  0  0  0  0  0  0  0  0  0
    0.1632   -0.3745   -0.8523 H   0  0  0  0  0  0  0  0  0  0  0  0
   -0.1937    0.5462    0.6015 H   0  0  0  0  0  0  0  0  0  0  0  0
   -0.9685    0.9594   -0.9253 H   0  0  0  0  0  0  0  0  0  0  0  0
    1.1471    1.7053   -1.8849 H   0  0  0  0  0  0  0  0  0  0  0  0
    3.2408    1.6412   -0.3614 H   0  0  0  0  0  0  0  0  0  0  0  0
    2.3691    0.4344    0.5766 H   0  0  0  0  0  0  0  0  0  0  0  0
    2.9992    0.2628   -2.3971 H   0  0  0  0  0  0  0  0  0  0  0  0
    2.1391   -0.9699   -1.4726 H   0  0  0  0  0  0  0  0  0  0  0  0
    4.9819   -0.0194   -0.9274 H   0  0  0  0  0  0  0  0  0  0  0  0
    4.1213   -1.2333    0.0168 H   0  0  0  0  0  0  0  0  0  0  0  0
    5.5815   -2.1640   -3.8820 H   0  0  0  0  0  0  0  0  0  0  0  0
    4.1424   -1.1442   -3.8298 H   0  0  0  0  0  0  0  0  0  0  0  0
    5.6938   -0.5114   -3.2655 H   0  0  0  0  0  0  0  0  0  0  0  0
    2.9056   -2.8599   -2.5024 H   0  0  0  0  0  0  0  0  0  0  0  0
    4.3092   -3.9356   -2.4890 H   0  0  0  0  0  0  0  0  0  0  0  0
    3.5677   -3.4516   -0.9666 H   0  0  0  0  0  0  0  0  0  0  0  0
    6.6151   -1.7216   -1.2850 H   0  0  0  0  0  0  0  0  0  0  0  0
    1.9987    3.4368   -0.4040 H   0  0  0  0  0  0  0  0  0  0  0  0
    1.6443    3.5351    1.8620 H   0  0  0  0  0  0  0  0  0  0  0  0
    1.0553    1.8936    1.7591 H   0  0  0  0  0  0  0  0  0  0  0  0
   -0.4708    4.3359    2.2769 H   0  0  0  0  0  0  0  0  0  0  0  0
   -1.0528    2.6829    2.3494 H   0  0  0  0  0  0  0  0  0  0  0  0
   -1.7015    2.6558    0.0877 H   0  0  0  0  0  0  0  0  0  0  0  0
    0.9070    5.4284    0.5372 H   0  0  0  0  0  0  0  0  0  0  0  0
    1.1330    5.5719   -1.2032 H   0  0  0  0  0  0  0  0  0  0  0  0
   -0.2983    7.3733   -0.2769 H   0  0  0  0  0  0  0  0  0  0  0  0
   -1.1788    6.4053   -1.4562 H   0  0  0  0  0  0  0  0  0  0  0  0
   -2.6071    6.7786    0.5110 H   0  0  0  0  0  0  0  0  0  0  0  0
   -1.3483    6.1468    1.5754 H   0  0  0  0  0  0  0  0  0  0  0  0
   -4.2020    5.2926   -0.1817 H   0  0  0  0  0  0  0  0  0  0  0  0
   -4.5761    3.1744   -1.4428 H   0  0  0  0  0  0  0  0  0  0  0  0
   -3.0136    1.2276    1.8142 H   0  0  0  0  0  0  0  0  0  0  0  0
   -3.4806    2.9200    2.0731 H   0  0  0  0  0  0  0  0  0  0  0  0
   -4.6622    1.3352    3.6096 H   0  0  0  0  0  0  0  0  0  0  0  0
   -6.3774   -0.1933    2.6467 H   0  0  0  0  0  0  0  0  0  0  0  0
   -4.7274   -0.6261    2.1565 H   0  0  0  0  0  0  0  0  0  0  0  0
   -6.1643   -0.8032    0.2005 H   0  0  0  0  0  0  0  0  0  0  0  0
   -3.7937    0.8164   -2.0792 H   0  0  0  0  0  0  0  0  0  0  0  0
   -5.0163   -0.5321   -1.8601 H   0  0  0  0  0  0  0  0  0  0  0  0
   -7.0944    1.6998    1.0054 H   0  0  0  0  0  0  0  0  0  0  0  0
   -5.7234    3.2752    2.7040 H   0  0  0  0  0  0  0  0  0  0  0  0
   -1.3247    4.3974   -2.3061 H   0  0  0  0  0  0  0  0  0  0  0  0
    0.2998    3.8619   -2.7404 H   0  0  0  0  0  0  0  0  0  0  0  0
   -0.9225    2.6955   -2.2238 H   0  0  0  0  0  0  0  0  0  0  0  0
  1  2  1  0
  2  3  1  0
  3  4  1  0
  4  5  1  0
  5  6  1  0
  6  7  1  0
  6  8  1  0
  6  9  1  1
  2 10  1  0
 10 11  1  0
 11 12  1  0
 12 13  1  0
 14 13  1  1
 14 15  1  0
 15 16  1  0
 16 17  1  0
 17 18  1  0
 18 19  2  0
 19 20  1  0
 20 21  2  0
 21 22  1  0
 22 23  1  0
 23 24  1  0
 24 25  1  0
 25 26  1  0
 26 27  2  0
 25 28  1  0
 23 29  1  0
 14 30  1  0
 14 10  1  0
 18 13  1  0
 26 21  1  0
  1 31  1  6
  1 32  1  0
  1 33  1  0
  2 34  1  6
  3 35  1  1
  3 36  1  0
  4 37  1  6
  4 38  1  0
  5 39  1  1
  5 40  1  0
  7 41  1  6
  7 42  1  0
  7 43  1  0
  8 44  1  6
  8 45  1  0
  8 46  1  0
  9 47  1  0
 10 48  1  1
 11 49  1  1
 11 50  1  0
 12 51  1  1
 12 52  1  0
 13 53  1  6
 15 54  1  1
 15 55  1  0
 16 56  1  1
 16 57  1  0
 17 58  1  1
 17 59  1  0
 19 60  1  0
 20 61  1  0
 22 62  1  6
 22 63  1  0
 23 64  1  1
 24 65  1  1
 24 66  1  0
 25 67  1  6
 27 68  1  0
 27 69  1  0
 28 70  1  0
 29 71  1  0
 30 72  1  6
 30 73  1  0
 30 74  1  0
M  END
$$$$
