 energy: -92.466429594936 gnorm: 0.000039106087 xtb: 6.5.1 (9af7eec)
     RDKit          3D

 74 76  0  0  0  0  0  0  0  0999 V2000
    2.0745    3.8945   -3.1971 C   0  0  1  0  0  0  0  0  0  0  0  0
    1.9816    2.9438   -2.0003 C   0  0  2  0  0  0  0  0  0  0  0  0
    0.8243    1.9592   -2.2384 C   0  0  1  0  0  0  0  0  0  0  0  0
    1.1208    0.8486   -3.2511 C   0  0  2  0  0  0  0  0  0  0  0  0
    2.0327   -0.2364   -2.6841 C   0  0  1  0  0  0  0  0  0  0  0  0
    2.4165   -1.3612   -3.6660 C   0  0  2  0  0  0  0  0  0  0  0  0
    3.2675   -0.8263   -4.8240 C   0  0  1  0  0  0  0  0  0  0  0  0
    1.1880   -2.0935   -4.2043 C   0  0  1  0  0  0  0  0  0  0  0  0
    3.1580   -2.3440   -2.9503 O   0  0  0  0  0  0  0  0  0  0  0  0
    1.7483    3.7350   -0.6994 C   0  0  2  0  0  0  0  0  0  0  0  0
    2.5951    5.0160   -0.5967 C   0  0  2  0  0  0  0  0  0  0  0  0
    2.6450    5.3122    0.8951 C   0  0  2  0  0  0  0  0  0  0  0  0
    2.9315    3.9196    1.4604 C   0  0  2  0  0  0  0  0  0  0  0  0
    1.9764    2.9885    0.6646 C   0  0  1  0  0  0  0  0  0  0  0  0
    0.6195    2.8446    1.3763 C   0  0  1  0  0  0  0  0  0  0  0  0
    0.7334    2.5820    2.8718 C   0  0  1  0  0  0  0  0  0  0  0  0
    1.4873    3.7342    3.5353 C   0  0  2  0  0  0  0  0  0  0  0  0
    2.8633    3.8111    2.9551 C   0  0  0  0  0  0  0  0  0  0  0  0
    4.0027    3.7710    3.6648 C   0  0  0  0  0  0  0  0  0  0  0  0
    4.1275    3.6768    5.0942 C   0  0  0  0  0  0  0  0  0  0  0  0
    5.2644    3.7071    5.8116 C   0  0  0  0  0  0  0  0  0  0  0  0
    6.6466    3.9010    5.2517 C   0  0  1  0  0  0  0  0  0  0  0  0
    7.3495    5.0663    5.9582 C   0  0  2  0  0  0  0  0  0  0  0  0
    7.4126    4.8120    7.4648 C   0  0  2  0  0  0  0  0  0  0  0  0
    6.0137    4.6096    8.0615 C   0  0  2  0  0  0  0  0  0  0  0  0
    5.2245    3.5774    7.2744 C   0  0  0  0  0  0  0  0  0  0  0  0
    4.5059    2.6449    7.8883 C   0  0  0  0  0  0  0  0  0  0  0  0
    5.3015    5.8247    8.1251 O   0  0  0  0  0  0  0  0  0  0  0  0
    6.6697    6.2910    5.7345 O   0  0  0  0  0  0  0  0  0  0  0  0
    2.6541    1.6211    0.5654 C   0  0  1  0  0  0  0  0  0  0  0  0
    2.1157    3.3305   -4.1255 H   0  0  0  0  0  0  0  0  0  0  0  0
    1.2022    4.5438   -3.2348 H   0  0  0  0  0  0  0  0  0  0  0  0
    2.9649    4.5144   -3.1485 H   0  0  0  0  0  0  0  0  0  0  0  0
    2.9241    2.3970   -1.9336 H   0  0  0  0  0  0  0  0  0  0  0  0
    0.5280    1.4963   -1.2978 H   0  0  0  0  0  0  0  0  0  0  0  0
   -0.0340    2.5349   -2.5947 H   0  0  0  0  0  0  0  0  0  0  0  0
    1.5728    1.2788   -4.1447 H   0  0  0  0  0  0  0  0  0  0  0  0
    0.1725    0.3961   -3.5453 H   0  0  0  0  0  0  0  0  0  0  0  0
    2.9578    0.2206   -2.3218 H   0  0  0  0  0  0  0  0  0  0  0  0
    1.5411   -0.7067   -1.8282 H   0  0  0  0  0  0  0  0  0  0  0  0
    3.6478   -1.6621   -5.4069 H   0  0  0  0  0  0  0  0  0  0  0  0
    2.6792   -0.1898   -5.4776 H   0  0  0  0  0  0  0  0  0  0  0  0
    4.1136   -0.2536   -4.4466 H   0  0  0  0  0  0  0  0  0  0  0  0
    0.6135   -1.4542   -4.8667 H   0  0  0  0  0  0  0  0  0  0  0  0
    1.5137   -2.9728   -4.7531 H   0  0  0  0  0  0  0  0  0  0  0  0
    0.5607   -2.4194   -3.3793 H   0  0  0  0  0  0  0  0  0  0  0  0
    3.9578   -1.9345   -2.6025 H   0  0  0  0  0  0  0  0  0  0  0  0
    0.6992    4.0487   -0.7286 H   0  0  0  0  0  0  0  0  0  0  0  0
    2.1698    5.8367   -1.1714 H   0  0  0  0  0  0  0  0  0  0  0  0
    3.6088    4.8290   -0.9567 H   0  0  0  0  0  0  0  0  0  0  0  0
    1.6838    5.6871    1.2467 H   0  0  0  0  0  0  0  0  0  0  0  0
    3.4169    6.0342    1.1605 H   0  0  0  0  0  0  0  0  0  0  0  0
    3.9543    3.6700    1.1532 H   0  0  0  0  0  0  0  0  0  0  0  0
    0.0470    3.7664    1.2485 H   0  0  0  0  0  0  0  0  0  0  0  0
    0.0517    2.0407    0.9020 H   0  0  0  0  0  0  0  0  0  0  0  0
   -0.2673    2.4980    3.3015 H   0  0  0  0  0  0  0  0  0  0  0  0
    1.2571    1.6444    3.0640 H   0  0  0  0  0  0  0  0  0  0  0  0
    1.5149    3.5927    4.6140 H   0  0  0  0  0  0  0  0  0  0  0  0
    0.9548    4.6688    3.3354 H   0  0  0  0  0  0  0  0  0  0  0  0
    4.9292    3.8091    3.1047 H   0  0  0  0  0  0  0  0  0  0  0  0
    3.2105    3.5766    5.6568 H   0  0  0  0  0  0  0  0  0  0  0  0
    7.2344    2.9936    5.4190 H   0  0  0  0  0  0  0  0  0  0  0  0
    6.6204    4.0903    4.1774 H   0  0  0  0  0  0  0  0  0  0  0  0
    8.3789    5.1525    5.5671 H   0  0  0  0  0  0  0  0  0  0  0  0
    7.8776    5.6694    7.9543 H   0  0  0  0  0  0  0  0  0  0  0  0
    8.0234    3.9271    7.6478 H   0  0  0  0  0  0  0  0  0  0  0  0
    6.1044    4.2744    9.1018 H   0  0  0  0  0  0  0  0  0  0  0  0
    3.9334    1.9181    7.3368 H   0  0  0  0  0  0  0  0  0  0  0  0
    4.4754    2.5715    8.9619 H   0  0  0  0  0  0  0  0  0  0  0  0
    5.4344    6.2740    7.2766 H   0  0  0  0  0  0  0  0  0  0  0  0
    6.4532    6.3619    4.7987 H   0  0  0  0  0  0  0  0  0  0  0  0
    2.8994    1.2713    1.5663 H   0  0  0  0  0  0  0  0  0  0  0  0
    2.0177    0.8794    0.0938 H   0  0  0  0  0  0  0  0  0  0  0  0
    3.5851    1.6869    0.0076 H   0  0  0  0  0  0  0  0  0  0  0  0
  1  2  1  0
  2  3  1  0
  3  4  1  0
  4  5  1  0
  5  6  1  0
  6  7  1  0
  6  8  1  0
  6  9  1  1
  2 10  1  0
 10 11  1  0
 11 12  1  0
 12 13  1  0
 14 13  1  1
 14 15  1  0
 15 16  1  0
 16 17  1  0
 17 18  1  0
 18 19  2  0
 19 20  1  0
 20 21  2  0
 21 22  1  0
 22 23  1  0
 23 24  1  0
 24 25  1  0
 25 26  1  0
 26 27  2  0
 25 28  1  0
 23 29  1  0
 14 30  1  0
 14 10  1  0
 18 13  1  0
 26 21  1  0
  1 31  1  6
  1 32  1  0
  1 33  1  0
  2 34  1  1
  3 35  1  1
  3 36  1  0
  4 37  1  6
  4 38  1  0
  5 39  1  1
  5 40  1  0
  7 41  1  6
  7 42  1  0
  7 43  1  0
  8 44  1  6
  8 45  1  0
  8 46  1  0
  9 47  1  0
 10 48  1  1
 11 49  1  6
 11 50  1  0
 12 51  1  1
 12 52  1  0
 13 53  1  6
 15 54  1  1
 15 55  1  0
 16 56  1  1
 16 57  1  0
 17 58  1  1
 17 59  1  0
 19 60  1  0
 20 61  1  0
 22 62  1  6
 22 63  1  0
 23 64  1  6
 24 65  1  1
 24 66  1  0
 25 67  1  1
 27 68  1  0
 27 69  1  0
 28 70  1  0
 29 71  1  0
 30 72  1  1
 30 73  1  0
 30 74  1  0
M  END
$$$$
