 energy: -92.464377061257 gnorm: 0.000041427678 xtb: 6.5.1 (9af7eec)
     RDKit          3D

 74 76  0  0  0  0  0  0  0  0999 V2000
    2.7010    1.8223   -2.0701 C   0  0  1  0  0  0  0  0  0  0  0  0
    2.0082    1.4793   -0.7479 C   0  0  2  0  0  0  0  0  0  0  0  0
    1.0677    0.2790   -0.8984 C   0  0  1  0  0  0  0  0  0  0  0  0
    1.7634   -1.0269   -1.2981 C   0  0  2  0  0  0  0  0  0  0  0  0
    2.7251   -1.5471   -0.2301 C   0  0  1  0  0  0  0  0  0  0  0  0
    3.3516   -2.9242   -0.5418 C   0  0  2  0  0  0  0  0  0  0  0  0
    2.2953   -4.0356   -0.5345 C   0  0  1  0  0  0  0  0  0  0  0  0
    4.4252   -3.2324    0.5050 C   0  0  1  0  0  0  0  0  0  0  0  0
    4.0264   -2.8993   -1.7902 O   0  0  0  0  0  0  0  0  0  0  0  0
    1.3787    2.7126   -0.0538 C   0  0  2  0  0  0  0  0  0  0  0  0
    1.0092    2.3775    1.4095 C   0  0  2  0  0  0  0  0  0  0  0  0
   -0.5240    2.3632    1.5145 C   0  0  2  0  0  0  0  0  0  0  0  0
   -1.0552    2.6409    0.0978 C   0  0  2  0  0  0  0  0  0  0  0  0
    0.0955    3.3862   -0.6091 C   0  0  1  0  0  0  0  0  0  0  0  0
    0.1243    4.8574   -0.1486 C   0  0  1  0  0  0  0  0  0  0  0  0
   -1.2223    5.5601   -0.2760 C   0  0  1  0  0  0  0  0  0  0  0  0
   -2.2929    4.8111    0.5188 C   0  0  2  0  0  0  0  0  0  0  0  0
   -2.3593    3.3844    0.0657 C   0  0  0  0  0  0  0  0  0  0  0  0
   -3.4682    2.7624   -0.3591 C   0  0  0  0  0  0  0  0  0  0  0  0
   -4.7861    3.3243   -0.4970 C   0  0  0  0  0  0  0  0  0  0  0  0
   -5.8979    2.6171   -0.7536 C   0  0  0  0  0  0  0  0  0  0  0  0
   -7.2233    3.2836   -1.0044 C   0  0  1  0  0  0  0  0  0  0  0  0
   -7.7851    2.8419   -2.3620 C   0  0  2  0  0  0  0  0  0  0  0  0
   -7.9189    1.3182   -2.4091 C   0  0  2  0  0  0  0  0  0  0  0  0
   -6.5804    0.6192   -2.1309 C   0  0  2  0  0  0  0  0  0  0  0  0
   -5.9491    1.1536   -0.8567 C   0  0  0  0  0  0  0  0  0  0  0  0
   -5.4760    0.3432    0.0815 C   0  0  0  0  0  0  0  0  0  0  0  0
   -5.6915    0.7531   -3.2164 O   0  0  0  0  0  0  0  0  0  0  0  0
   -6.9425    3.2505   -3.4270 O   0  0  0  0  0  0  0  0  0  0  0  0
   -0.0832    3.3489   -2.1234 C   0  0  1  0  0  0  0  0  0  0  0  0
    3.4799    1.0937   -2.2839 H   0  0  0  0  0  0  0  0  0  0  0  0
    2.0074    1.8261   -2.9046 H   0  0  0  0  0  0  0  0  0  0  0  0
    3.1734    2.8002   -2.0102 H   0  0  0  0  0  0  0  0  0  0  0  0
    2.8049    1.1815   -0.0551 H   0  0  0  0  0  0  0  0  0  0  0  0
    0.5467    0.1102    0.0450 H   0  0  0  0  0  0  0  0  0  0  0  0
    0.3165    0.4940   -1.6595 H   0  0  0  0  0  0  0  0  0  0  0  0
    2.3006   -0.8765   -2.2360 H   0  0  0  0  0  0  0  0  0  0  0  0
    0.9807   -1.7687   -1.4749 H   0  0  0  0  0  0  0  0  0  0  0  0
    3.5464   -0.8381   -0.1150 H   0  0  0  0  0  0  0  0  0  0  0  0
    2.2016   -1.6170    0.7255 H   0  0  0  0  0  0  0  0  0  0  0  0
    2.7744   -4.9941   -0.7202 H   0  0  0  0  0  0  0  0  0  0  0  0
    1.7935   -4.0756    0.4283 H   0  0  0  0  0  0  0  0  0  0  0  0
    1.5491   -3.8740   -1.3097 H   0  0  0  0  0  0  0  0  0  0  0  0
    3.9944   -3.2411    1.5020 H   0  0  0  0  0  0  0  0  0  0  0  0
    4.8710   -4.2014    0.2982 H   0  0  0  0  0  0  0  0  0  0  0  0
    5.2084   -2.4808    0.4584 H   0  0  0  0  0  0  0  0  0  0  0  0
    3.3706   -2.8040   -2.4890 H   0  0  0  0  0  0  0  0  0  0  0  0
    2.1751    3.4653   -0.0570 H   0  0  0  0  0  0  0  0  0  0  0  0
    1.4273    3.1246    2.0852 H   0  0  0  0  0  0  0  0  0  0  0  0
    1.4315    1.4176    1.7045 H   0  0  0  0  0  0  0  0  0  0  0  0
   -0.8663    3.1284    2.2102 H   0  0  0  0  0  0  0  0  0  0  0  0
   -0.8963    1.4067    1.8813 H   0  0  0  0  0  0  0  0  0  0  0  0
   -1.2012    1.6849   -0.4095 H   0  0  0  0  0  0  0  0  0  0  0  0
    0.4328    4.9026    0.8966 H   0  0  0  0  0  0  0  0  0  0  0  0
    0.8719    5.3961   -0.7366 H   0  0  0  0  0  0  0  0  0  0  0  0
   -1.1337    6.5822    0.1006 H   0  0  0  0  0  0  0  0  0  0  0  0
   -1.5250    5.6219   -1.3225 H   0  0  0  0  0  0  0  0  0  0  0  0
   -3.2553    5.3090    0.4084 H   0  0  0  0  0  0  0  0  0  0  0  0
   -2.0305    4.8446    1.5804 H   0  0  0  0  0  0  0  0  0  0  0  0
   -3.3910    1.7223   -0.6493 H   0  0  0  0  0  0  0  0  0  0  0  0
   -4.8785    4.4013   -0.4285 H   0  0  0  0  0  0  0  0  0  0  0  0
   -7.9369    2.9939   -0.2277 H   0  0  0  0  0  0  0  0  0  0  0  0
   -7.1172    4.3721   -0.9782 H   0  0  0  0  0  0  0  0  0  0  0  0
   -8.7837    3.2917   -2.5018 H   0  0  0  0  0  0  0  0  0  0  0  0
   -8.2661    1.0214   -3.4002 H   0  0  0  0  0  0  0  0  0  0  0  0
   -8.6563    1.0062   -1.6685 H   0  0  0  0  0  0  0  0  0  0  0  0
   -6.7470   -0.4596   -2.0248 H   0  0  0  0  0  0  0  0  0  0  0  0
   -5.0284    0.7255    0.9835 H   0  0  0  0  0  0  0  0  0  0  0  0
   -5.5326   -0.7279   -0.0178 H   0  0  0  0  0  0  0  0  0  0  0  0
   -5.7334    1.6776   -3.5038 H   0  0  0  0  0  0  0  0  0  0  0  0
   -6.7426    4.1870   -3.3263 H   0  0  0  0  0  0  0  0  0  0  0  0
   -1.0212    3.8289   -2.3929 H   0  0  0  0  0  0  0  0  0  0  0  0
    0.7284    3.8735   -2.6214 H   0  0  0  0  0  0  0  0  0  0  0  0
   -0.1281    2.3316   -2.4961 H   0  0  0  0  0  0  0  0  0  0  0  0
  1  2  1  0
  2  3  1  0
  3  4  1  0
  4  5  1  0
  5  6  1  0
  6  7  1  0
  6  8  1  0
  6  9  1  6
  2 10  1  0
 10 11  1  0
 11 12  1  0
 12 13  1  0
 14 13  1  1
 14 15  1  0
 15 16  1  0
 16 17  1  0
 17 18  1  0
 18 19  2  0
 19 20  1  0
 20 21  2  0
 21 22  1  0
 22 23  1  0
 23 24  1  0
 24 25  1  0
 25 26  1  0
 26 27  2  0
 25 28  1  0
 23 29  1  0
 14 30  1  0
 14 10  1  0
 18 13  1  0
 26 21  1  0
  1 31  1  6
  1 32  1  0
  1 33  1  0
  2 34  1  1
  3 35  1  1
  3 36  1  0
  4 37  1  6
  4 38  1  0
  5 39  1  1
  5 40  1  0
  7 41  1  6
  7 42  1  0
  7 43  1  0
  8 44  1  1
  8 45  1  0
  8 46  1  0
  9 47  1  0
 10 48  1  1
 11 49  1  1
 11 50  1  0
 12 51  1  1
 12 52  1  0
 13 53  1  6
 15 54  1  1
 15 55  1  0
 16 56  1  1
 16 57  1  0
 17 58  1  1
 17 59  1  0
 19 60  1  0
 20 61  1  0
 22 62  1  1
 22 63  1  0
 23 64  1  6
 24 65  1  6
 24 66  1  0
 25 67  1  1
 27 68  1  0
 27 69  1  0
 28 70  1  0
 29 71  1  0
 30 72  1  1
 30 73  1  0
 30 74  1  0
M  END
$$$$
