 energy: -92.465022468966 gnorm: 0.000047942780 xtb: 6.5.1 (9af7eec)
     RDKit          3D

 74 76  0  0  0  0  0  0  0  0999 V2000
    0.5810    2.3776   -2.7205 C   0  0  1  0  0  0  0  0  0  0  0  0
    0.8645    1.8253   -1.3236 C   0  0  2  0  0  0  0  0  0  0  0  0
   -0.1962    0.7633   -0.9532 C   0  0  1  0  0  0  0  0  0  0  0  0
    0.3390   -0.6708   -0.9819 C   0  0  2  0  0  0  0  0  0  0  0  0
    0.7000   -1.1389   -2.3911 C   0  0  1  0  0  0  0  0  0  0  0  0
    1.1331   -2.6171   -2.4981 C   0  0  2  0  0  0  0  0  0  0  0  0
    2.3733   -2.9004   -1.6422 C   0  0  1  0  0  0  0  0  0  0  0  0
    1.4343   -2.9417   -3.9635 C   0  0  1  0  0  0  0  0  0  0  0  0
    0.0728   -3.4824   -2.1241 O   0  0  0  0  0  0  0  0  0  0  0  0
    0.9395    2.8865   -0.2043 C   0  0  2  0  0  0  0  0  0  0  0  0
   -0.3314    3.7546   -0.1156 C   0  0  2  0  0  0  0  0  0  0  0  0
    0.0380    5.1654   -0.6029 C   0  0  2  0  0  0  0  0  0  0  0  0
    1.5104    5.1010   -1.0476 C   0  0  2  0  0  0  0  0  0  0  0  0
    2.1003    3.9140   -0.2588 C   0  0  1  0  0  0  0  0  0  0  0  0
    2.4025    4.3446    1.1889 C   0  0  1  0  0  0  0  0  0  0  0  0
    3.2371    5.6162    1.2803 C   0  0  1  0  0  0  0  0  0  0  0  0
    2.5319    6.7672    0.5617 C   0  0  2  0  0  0  0  0  0  0  0  0
    2.2663    6.3851   -0.8612 C   0  0  0  0  0  0  0  0  0  0  0  0
    2.6743    7.0792   -1.9354 C   0  0  0  0  0  0  0  0  0  0  0  0
    3.4189    8.3095   -1.9384 C   0  0  0  0  0  0  0  0  0  0  0  0
    3.7623    9.0453   -3.0102 C   0  0  0  0  0  0  0  0  0  0  0  0
    3.3818    8.7466   -4.4340 C   0  0  1  0  0  0  0  0  0  0  0  0
    2.6937    9.9616   -5.0676 C   0  0  2  0  0  0  0  0  0  0  0  0
    3.6114   11.1833   -5.0036 C   0  0  2  0  0  0  0  0  0  0  0  0
    4.0170   11.5088   -3.5601 C   0  0  2  0  0  0  0  0  0  0  0  0
    4.5469   10.2767   -2.8469 C   0  0  0  0  0  0  0  0  0  0  0  0
    5.6325   10.3353   -2.0846 C   0  0  0  0  0  0  0  0  0  0  0  0
    2.9423   12.0666   -2.8377 O   0  0  0  0  0  0  0  0  0  0  0  0
    1.4801   10.2726   -4.4022 O   0  0  0  0  0  0  0  0  0  0  0  0
    3.3814    3.3915   -0.9039 C   0  0  1  0  0  0  0  0  0  0  0  0
    0.4110    1.5558   -3.4123 H   0  0  0  0  0  0  0  0  0  0  0  0
   -0.3037    3.0084   -2.7237 H   0  0  0  0  0  0  0  0  0  0  0  0
    1.4167    2.9581   -3.1012 H   0  0  0  0  0  0  0  0  0  0  0  0
    1.8365    1.3244   -1.3503 H   0  0  0  0  0  0  0  0  0  0  0  0
   -0.5743    0.9559    0.0527 H   0  0  0  0  0  0  0  0  0  0  0  0
   -1.0469    0.8352   -1.6331 H   0  0  0  0  0  0  0  0  0  0  0  0
   -0.4345   -1.3266   -0.5717 H   0  0  0  0  0  0  0  0  0  0  0  0
    1.2128   -0.7304   -0.3296 H   0  0  0  0  0  0  0  0  0  0  0  0
   -0.1737   -1.0073   -3.0340 H   0  0  0  0  0  0  0  0  0  0  0  0
    1.5085   -0.5229   -2.7858 H   0  0  0  0  0  0  0  0  0  0  0  0
    2.7018   -3.9244   -1.8037 H   0  0  0  0  0  0  0  0  0  0  0  0
    3.1823   -2.2265   -1.9111 H   0  0  0  0  0  0  0  0  0  0  0  0
    2.1531   -2.7783   -0.5836 H   0  0  0  0  0  0  0  0  0  0  0  0
    2.2539   -2.3305   -4.3298 H   0  0  0  0  0  0  0  0  0  0  0  0
    1.6996   -3.9910   -4.0569 H   0  0  0  0  0  0  0  0  0  0  0  0
    0.5510   -2.7589   -4.5692 H   0  0  0  0  0  0  0  0  0  0  0  0
   -0.1014   -3.3671   -1.1841 H   0  0  0  0  0  0  0  0  0  0  0  0
    1.0580    2.3113    0.7206 H   0  0  0  0  0  0  0  0  0  0  0  0
   -0.6912    3.7945    0.9131 H   0  0  0  0  0  0  0  0  0  0  0  0
   -1.1347    3.3279   -0.7129 H   0  0  0  0  0  0  0  0  0  0  0  0
   -0.0882    5.8909    0.1995 H   0  0  0  0  0  0  0  0  0  0  0  0
   -0.5962    5.4865   -1.4293 H   0  0  0  0  0  0  0  0  0  0  0  0
    1.5336    4.8458   -2.1094 H   0  0  0  0  0  0  0  0  0  0  0  0
    1.4623    4.5160    1.7153 H   0  0  0  0  0  0  0  0  0  0  0  0
    2.9223    3.5295    1.6987 H   0  0  0  0  0  0  0  0  0  0  0  0
    3.3868    5.8768    2.3307 H   0  0  0  0  0  0  0  0  0  0  0  0
    4.2221    5.4623    0.8365 H   0  0  0  0  0  0  0  0  0  0  0  0
    3.1362    7.6702    0.6268 H   0  0  0  0  0  0  0  0  0  0  0  0
    1.5841    6.9703    1.0684 H   0  0  0  0  0  0  0  0  0  0  0  0
    2.4239    6.6691   -2.9064 H   0  0  0  0  0  0  0  0  0  0  0  0
    3.7338    8.6900   -0.9772 H   0  0  0  0  0  0  0  0  0  0  0  0
    4.2848    8.5246   -5.0101 H   0  0  0  0  0  0  0  0  0  0  0  0
    2.7212    7.8806   -4.4986 H   0  0  0  0  0  0  0  0  0  0  0  0
    2.4732    9.7356   -6.1259 H   0  0  0  0  0  0  0  0  0  0  0  0
    3.0892   12.0463   -5.4199 H   0  0  0  0  0  0  0  0  0  0  0  0
    4.5020   10.9872   -5.6018 H   0  0  0  0  0  0  0  0  0  0  0  0
    4.7939   12.2828   -3.5638 H   0  0  0  0  0  0  0  0  0  0  0  0
    6.0060    9.4686   -1.5653 H   0  0  0  0  0  0  0  0  0  0  0  0
    6.1886   11.2491   -1.9635 H   0  0  0  0  0  0  0  0  0  0  0  0
    2.1593   11.5324   -3.0403 H   0  0  0  0  0  0  0  0  0  0  0  0
    0.9805    9.4603   -4.2674 H   0  0  0  0  0  0  0  0  0  0  0  0
    4.1406    4.1697   -0.9057 H   0  0  0  0  0  0  0  0  0  0  0  0
    3.7662    2.5366   -0.3510 H   0  0  0  0  0  0  0  0  0  0  0  0
    3.2203    3.0930   -1.9351 H   0  0  0  0  0  0  0  0  0  0  0  0
  1  2  1  0
  2  3  1  0
  3  4  1  0
  4  5  1  0
  5  6  1  0
  6  7  1  0
  6  8  1  0
  6  9  1  1
  2 10  1  0
 10 11  1  0
 11 12  1  0
 12 13  1  0
 14 13  1  6
 14 15  1  0
 15 16  1  0
 16 17  1  0
 17 18  1  0
 18 19  2  0
 19 20  1  0
 20 21  2  0
 21 22  1  0
 22 23  1  0
 23 24  1  0
 24 25  1  0
 25 26  1  0
 26 27  2  0
 25 28  1  0
 23 29  1  0
 14 30  1  0
 14 10  1  0
 18 13  1  0
 26 21  1  0
  1 31  1  6
  1 32  1  0
  1 33  1  0
  2 34  1  6
  3 35  1  1
  3 36  1  0
  4 37  1  1
  4 38  1  0
  5 39  1  6
  5 40  1  0
  7 41  1  1
  7 42  1  0
  7 43  1  0
  8 44  1  6
  8 45  1  0
  8 46  1  0
  9 47  1  0
 10 48  1  1
 11 49  1  1
 11 50  1  0
 12 51  1  1
 12 52  1  0
 13 53  1  6
 15 54  1  1
 15 55  1  0
 16 56  1  1
 16 57  1  0
 17 58  1  6
 17 59  1  0
 19 60  1  0
 20 61  1  0
 22 62  1  6
 22 63  1  0
 23 64  1  6
 24 65  1  6
 24 66  1  0
 25 67  1  6
 27 68  1  0
 27 69  1  0
 28 70  1  0
 29 71  1  0
 30 72  1  6
 30 73  1  0
 30 74  1  0
M  END
$$$$
