 energy: -92.463717464888 gnorm: 0.000034841310 xtb: 6.5.1 (9af7eec)
     RDKit          3D

 74 76  0  0  0  0  0  0  0  0999 V2000
    0.0646    0.2574    0.3064 C   0  0  1  0  0  0  0  0  0  0  0  0
    1.0531    1.1277   -0.4741 C   0  0  2  0  0  0  0  0  0  0  0  0
    2.4463    0.4916   -0.5326 C   0  0  1  0  0  0  0  0  0  0  0  0
    2.4823   -0.7680   -1.3998 C   0  0  2  0  0  0  0  0  0  0  0  0
    3.8970   -1.3385   -1.5674 C   0  0  1  0  0  0  0  0  0  0  0  0
    4.6029   -0.9357   -2.8739 C   0  0  2  0  0  0  0  0  0  0  0  0
    5.9823   -1.6091   -2.9268 C   0  0  1  0  0  0  0  0  0  0  0  0
    4.7758    0.5816   -3.0103 C   0  0  1  0  0  0  0  0  0  0  0  0
    3.7892   -1.4252   -3.9298 O   0  0  0  0  0  0  0  0  0  0  0  0
    1.0318    2.6139   -0.0372 C   0  0  2  0  0  0  0  0  0  0  0  0
    1.7567    3.4914   -1.0837 C   0  0  2  0  0  0  0  0  0  0  0  0
    3.0624    3.9961   -0.4499 C   0  0  2  0  0  0  0  0  0  0  0  0
    3.1232    3.3782    0.9573 C   0  0  2  0  0  0  0  0  0  0  0  0
    1.6534    3.0673    1.3114 C   0  0  1  0  0  0  0  0  0  0  0  0
    0.9257    4.3583    1.7340 C   0  0  1  0  0  0  0  0  0  0  0  0
    1.6531    5.1333    2.8268 C   0  0  1  0  0  0  0  0  0  0  0  0
    3.0694    5.4834    2.3713 C   0  0  2  0  0  0  0  0  0  0  0  0
    3.8111    4.2428    1.9712 C   0  0  0  0  0  0  0  0  0  0  0  0
    4.9889    3.9435    2.5373 C   0  0  0  0  0  0  0  0  0  0  0  0
    5.8456    2.8291    2.2244 C   0  0  0  0  0  0  0  0  0  0  0  0
    6.9232    2.4634    2.9368 C   0  0  0  0  0  0  0  0  0  0  0  0
    7.8418    1.3642    2.4763 C   0  0  1  0  0  0  0  0  0  0  0  0
    9.2818    1.8852    2.3843 C   0  0  2  0  0  0  0  0  0  0  0  0
    9.7293    2.4428    3.7371 C   0  0  2  0  0  0  0  0  0  0  0  0
    8.7918    3.5526    4.2347 C   0  0  2  0  0  0  0  0  0  0  0  0
    7.3438    3.0952    4.1927 C   0  0  0  0  0  0  0  0  0  0  0  0
    6.5273    3.2709    5.2240 C   0  0  0  0  0  0  0  0  0  0  0  0
    8.9571    4.7396    3.4933 O   0  0  0  0  0  0  0  0  0  0  0  0
    9.3984    2.9136    1.4148 O   0  0  0  0  0  0  0  0  0  0  0  0
    1.5794    2.0632    2.4572 C   0  0  1  0  0  0  0  0  0  0  0  0
   -0.1784   -0.6336   -0.2677 H   0  0  0  0  0  0  0  0  0  0  0  0
    0.4667   -0.0606    1.2623 H   0  0  0  0  0  0  0  0  0  0  0  0
   -0.8613    0.7997    0.4852 H   0  0  0  0  0  0  0  0  0  0  0  0
    0.6780    1.1556   -1.5067 H   0  0  0  0  0  0  0  0  0  0  0  0
    3.1475    1.2176   -0.9377 H   0  0  0  0  0  0  0  0  0  0  0  0
    2.7817    0.2239    0.4709 H   0  0  0  0  0  0  0  0  0  0  0  0
    2.0686   -0.5620   -2.3874 H   0  0  0  0  0  0  0  0  0  0  0  0
    1.8536   -1.5301   -0.9384 H   0  0  0  0  0  0  0  0  0  0  0  0
    4.5217   -1.0432   -0.7227 H   0  0  0  0  0  0  0  0  0  0  0  0
    3.8391   -2.4280   -1.5755 H   0  0  0  0  0  0  0  0  0  0  0  0
    6.4958   -1.3552   -3.8532 H   0  0  0  0  0  0  0  0  0  0  0  0
    6.5972   -1.2852   -2.0916 H   0  0  0  0  0  0  0  0  0  0  0  0
    5.8703   -2.6898   -2.8810 H   0  0  0  0  0  0  0  0  0  0  0  0
    5.2962    0.9856   -2.1461 H   0  0  0  0  0  0  0  0  0  0  0  0
    5.3586    0.8136   -3.9014 H   0  0  0  0  0  0  0  0  0  0  0  0
    3.8068    1.0633   -3.1045 H   0  0  0  0  0  0  0  0  0  0  0  0
    4.2168   -1.2168   -4.7674 H   0  0  0  0  0  0  0  0  0  0  0  0
   -0.0302    2.8823   -0.0200 H   0  0  0  0  0  0  0  0  0  0  0  0
    1.1266    4.3336   -1.3717 H   0  0  0  0  0  0  0  0  0  0  0  0
    1.9551    2.9243   -1.9925 H   0  0  0  0  0  0  0  0  0  0  0  0
    3.0646    5.0837   -0.3909 H   0  0  0  0  0  0  0  0  0  0  0  0
    3.9356    3.7064   -1.0356 H   0  0  0  0  0  0  0  0  0  0  0  0
    3.6447    2.4234    0.8979 H   0  0  0  0  0  0  0  0  0  0  0  0
    0.8187    5.0126    0.8678 H   0  0  0  0  0  0  0  0  0  0  0  0
   -0.0789    4.0994    2.0780 H   0  0  0  0  0  0  0  0  0  0  0  0
    1.1012    6.0494    3.0501 H   0  0  0  0  0  0  0  0  0  0  0  0
    1.7012    4.5483    3.7465 H   0  0  0  0  0  0  0  0  0  0  0  0
    3.6064    6.0029    3.1667 H   0  0  0  0  0  0  0  0  0  0  0  0
    3.0035    6.1641    1.5175 H   0  0  0  0  0  0  0  0  0  0  0  0
    5.3772    4.6112    3.2962 H   0  0  0  0  0  0  0  0  0  0  0  0
    5.6301    2.2766    1.3182 H   0  0  0  0  0  0  0  0  0  0  0  0
    7.8217    0.5389    3.1936 H   0  0  0  0  0  0  0  0  0  0  0  0
    7.5206    0.9766    1.5049 H   0  0  0  0  0  0  0  0  0  0  0  0
    9.9490    1.0511    2.1042 H   0  0  0  0  0  0  0  0  0  0  0  0
   10.7342    2.8567    3.6373 H   0  0  0  0  0  0  0  0  0  0  0  0
    9.7528    1.6293    4.4632 H   0  0  0  0  0  0  0  0  0  0  0  0
    9.0552    3.8173    5.2659 H   0  0  0  0  0  0  0  0  0  0  0  0
    5.5008    2.9462    5.1921 H   0  0  0  0  0  0  0  0  0  0  0  0
    6.8631    3.7335    6.1367 H   0  0  0  0  0  0  0  0  0  0  0  0
    8.9906    4.4875    2.5584 H   0  0  0  0  0  0  0  0  0  0  0  0
    8.9852    2.6208    0.5958 H   0  0  0  0  0  0  0  0  0  0  0  0
    2.0722    2.4748    3.3352 H   0  0  0  0  0  0  0  0  0  0  0  0
    0.5459    1.8437    2.7131 H   0  0  0  0  0  0  0  0  0  0  0  0
    2.0876    1.1375    2.2101 H   0  0  0  0  0  0  0  0  0  0  0  0
  1  2  1  0
  2  3  1  0
  3  4  1  0
  4  5  1  0
  5  6  1  0
  6  7  1  0
  6  8  1  0
  6  9  1  6
  2 10  1  0
 10 11  1  0
 11 12  1  0
 12 13  1  0
 14 13  1  6
 14 15  1  0
 15 16  1  0
 16 17  1  0
 17 18  1  0
 18 19  2  0
 19 20  1  0
 20 21  2  0
 21 22  1  0
 22 23  1  0
 23 24  1  0
 24 25  1  0
 25 26  1  0
 26 27  2  0
 25 28  1  0
 23 29  1  0
 14 30  1  0
 14 10  1  0
 18 13  1  0
 26 21  1  0
  1 31  1  6
  1 32  1  0
  1 33  1  0
  2 34  1  6
  3 35  1  6
  3 36  1  0
  4 37  1  6
  4 38  1  0
  5 39  1  1
  5 40  1  0
  7 41  1  6
  7 42  1  0
  7 43  1  0
  8 44  1  1
  8 45  1  0
  8 46  1  0
  9 47  1  0
 10 48  1  1
 11 49  1  6
 11 50  1  0
 12 51  1  1
 12 52  1  0
 13 53  1  6
 15 54  1  6
 15 55  1  0
 16 56  1  1
 16 57  1  0
 17 58  1  1
 17 59  1  0
 19 60  1  0
 20 61  1  0
 22 62  1  1
 22 63  1  0
 23 64  1  6
 24 65  1  6
 24 66  1  0
 25 67  1  1
 27 68  1  0
 27 69  1  0
 28 70  1  0
 29 71  1  0
 30 72  1  1
 30 73  1  0
 30 74  1  0
M  END
$$$$
