 energy: -19.992961767873 gnorm: 0.000031892224 xtb: 6.5.1 (9af7eec)
     RDKit          3D

 20 19  0  0  0  0  0  0  0  0999 V2000
   -2.7838   -0.1965   -1.6540 C   0  0  2  0  0  0  0  0  0  0  0  0
   -1.9538    0.6183   -0.6693 C   0  0  2  0  0  0  0  0  0  0  0  0
   -1.1721   -0.2817    0.2855 C   0  0  2  0  0  0  0  0  0  0  0  0
   -0.2352    0.4854    1.2188 C   0  0  2  0  0  0  0  0  0  0  0  0
   -0.9674    1.3510    2.2422 C   0  0  2  0  0  0  0  0  0  0  0  0
    0.0021    2.0022    3.2213 C   0  0  2  0  0  0  0  0  0  0  0  0
   -3.3394    0.4581   -2.3218 H   0  0  0  0  0  0  0  0  0  0  0  0
   -3.4938   -0.8272   -1.1230 H   0  0  0  0  0  0  0  0  0  0  0  0
   -2.1429   -0.8371   -2.2564 H   0  0  0  0  0  0  0  0  0  0  0  0
   -2.6171    1.2720   -0.1007 H   0  0  0  0  0  0  0  0  0  0  0  0
   -1.2542    1.2505   -1.2212 H   0  0  0  0  0  0  0  0  0  0  0  0
   -0.5771   -0.9823   -0.3063 H   0  0  0  0  0  0  0  0  0  0  0  0
   -1.8740   -0.8694    0.8823 H   0  0  0  0  0  0  0  0  0  0  0  0
    0.4299    1.1161    0.6237 H   0  0  0  0  0  0  0  0  0  0  0  0
    0.3881   -0.2347    1.7555 H   0  0  0  0  0  0  0  0  0  0  0  0
   -1.6784    0.7314    2.7940 H   0  0  0  0  0  0  0  0  0  0  0  0
   -1.5325    2.1309    1.7293 H   0  0  0  0  0  0  0  0  0  0  0  0
   -0.5335    2.6202    3.9384 H   0  0  0  0  0  0  0  0  0  0  0  0
    0.7140    2.6311    2.6908 H   0  0  0  0  0  0  0  0  0  0  0  0
    0.5586    1.2448    3.7694 H   0  0  0  0  0  0  0  0  0  0  0  0
  1  8  1  1
  1  9  1  0
  1  2  1  0
  1  7  1  0
  2 11  1  6
  2  3  1  0
  2 10  1  0
  3 12  1  6
  3  4  1  0
  3 13  1  0
  4 15  1  1
  4  5  1  0
  4 14  1  0
  5 16  1  1
  5  6  1  0
  5 17  1  0
  6 20  1  1
  6 18  1  0
  6 19  1  0
M  END
$$$$
