Coordinates from ORCA-job xaw
     RDKit          3D

 32 32  0  0  0  0  0  0  0  0999 V2000
   -2.3480   -0.8000   -0.7820 N   0  0  0  0  0  0  0  0  0  0  0  0
   -1.1000   -0.3300   -0.2460 C   0  0  2  0  0  0  0  0  0  0  0  0
   -1.0880    1.1850   -0.3850 C   0  0  0  0  0  0  0  0  0  0  0  0
   -1.7270    1.7450   -1.2730 O   0  0  0  0  0  0  0  0  0  0  0  0
    0.1000   -0.9400   -1.0040 C   0  0  2  0  0  0  0  0  0  0  0  0
    1.4020   -0.5200   -0.3930 C   0  0  2  0  0  0  0  0  0  0  0  0
    1.7950   -1.0470    0.8430 C   0  0  0  0  0  0  0  0  0  0  0  0
    2.1980    0.4650   -0.9860 C   0  0  0  0  0  0  0  0  0  0  0  0
    2.9500   -0.5910    1.4770 C   0  0  0  0  0  0  0  0  0  0  0  0
    3.3560    0.9200   -0.3590 C   0  0  0  0  0  0  0  0  0  0  0  0
    3.7310    0.3980    0.8790 C   0  0  0  0  0  0  0  0  0  0  0  0
   -2.8390   -0.1650   -1.3920 H   0  0  0  0  0  0  0  0  0  0  0  0
   -1.0310   -0.6270    0.8010 H   0  0  0  0  0  0  0  0  0  0  0  0
    0.0390   -0.6260   -2.0470 H   0  0  0  0  0  0  0  0  0  0  0  0
   -0.0210   -2.0220   -0.9570 H   0  0  0  0  0  0  0  0  0  0  0  0
    1.1920   -1.8210    1.3030 H   0  0  0  0  0  0  0  0  0  0  0  0
    1.9000    0.8790   -1.9420 H   0  0  0  0  0  0  0  0  0  0  0  0
    3.2420   -1.0100    2.4300 H   0  0  0  0  0  0  0  0  0  0  0  0
    3.9630    1.6790   -0.8330 H   0  0  0  0  0  0  0  0  0  0  0  0
    4.6280    0.7510    1.3680 H   0  0  0  0  0  0  0  0  0  0  0  0
   -0.3180    1.8360    0.5140 N   0  0  0  0  0  0  0  0  0  0  0  0
    0.2870    1.2740    1.0920 H   0  0  0  0  0  0  0  0  0  0  0  0
   -0.0160    3.2440    0.3630 C   0  0  1  0  0  0  0  0  0  0  0  0
    0.1570    3.6870    1.3390 H   0  0  0  0  0  0  0  0  0  0  0  0
    0.8650    3.3990   -0.2620 H   0  0  0  0  0  0  0  0  0  0  0  0
   -0.8670    3.7240   -0.1090 H   0  0  0  0  0  0  0  0  0  0  0  0
   -2.8120   -2.0400   -0.4860 C   0  0  0  0  0  0  0  0  0  0  0  0
   -2.1990   -2.8070    0.2510 O   0  0  0  0  0  0  0  0  0  0  0  0
   -4.1300   -2.4110   -1.1210 C   0  0  2  0  0  0  0  0  0  0  0  0
   -3.9780   -3.2860   -1.7480 H   0  0  0  0  0  0  0  0  0  0  0  0
   -4.5580   -1.6090   -1.7180 H   0  0  0  0  0  0  0  0  0  0  0  0
   -4.8270   -2.6860   -0.3330 H   0  0  0  0  0  0  0  0  0  0  0  0
  1 12  1  0
  1 27  1  0
  1  2  1  0
  2  5  1  0
  2  3  1  0
  2 13  1  1
  3  4  1  0
  3 21  1  0
  5 14  1  6
  5 15  1  0
  5  6  1  0
  6  8  1  1
  6  7  1  0
  7 16  1  0
  7  9  1  0
  8 17  1  0
  8 10  1  0
  9 11  1  0
  9 18  1  0
 10 19  1  0
 10 11  1  0
 11 20  1  0
 21 23  1  0
 21 22  1  0
 23 25  1  6
 23 26  1  0
 23 24  1  0
 27 29  1  0
 27 28  1  0
 29 30  1  6
 29 31  1  0
 29 32  1  0
M  END
$$$$
