Coordinates from ORCA-job xab
     RDKit          3D

 19 18  0  0  0  0  0  0  0  0999 V2000
    0.2840   -0.3440   -0.0360 C   0  0  2  0  0  0  0  0  0  0  0  0
    0.3520   -0.9780   -0.9240 H   0  0  0  0  0  0  0  0  0  0  0  0
    0.3900   -1.0100    0.8240 H   0  0  0  0  0  0  0  0  0  0  0  0
   -0.9660    0.3540    0.0050 N   0  0  0  0  0  0  0  0  0  0  0  0
   -0.9090    1.3600   -0.0110 H   0  0  0  0  0  0  0  0  0  0  0  0
    1.3980    0.6860   -0.0460 C   0  0  0  0  0  0  0  0  0  0  0  0
    1.1640    1.8900   -0.0550 O   0  0  0  0  0  0  0  0  0  0  0  0
   -2.1390   -0.3250    0.0250 C   0  0  0  0  0  0  0  0  0  0  0  0
   -2.1770   -1.5510    0.0240 O   0  0  0  0  0  0  0  0  0  0  0  0
    2.6560    0.1840   -0.0600 N   0  0  0  0  0  0  0  0  0  0  0  0
    3.3830    0.8800   -0.0160 H   0  0  0  0  0  0  0  0  0  0  0  0
    3.0080   -1.2160    0.0670 C   0  0  1  0  0  0  0  0  0  0  0  0
    4.0660   -1.3250   -0.1470 H   0  0  0  0  0  0  0  0  0  0  0  0
    2.8170   -1.6040    1.0680 H   0  0  0  0  0  0  0  0  0  0  0  0
    2.4600   -1.8220   -0.6520 H   0  0  0  0  0  0  0  0  0  0  0  0
   -3.3840    0.5260    0.0420 C   0  0  2  0  0  0  0  0  0  0  0  0
   -3.9430    0.3420   -0.8730 H   0  0  0  0  0  0  0  0  0  0  0  0
   -3.1740    1.5890    0.1250 H   0  0  0  0  0  0  0  0  0  0  0  0
   -4.0060    0.2130    0.8770 H   0  0  0  0  0  0  0  0  0  0  0  0
  1  2  1  6
  1  6  1  0
  1  4  1  0
  1  3  1  0
  4  5  1  0
  4  8  1  0
  6 10  1  0
  6  7  1  0
  8  9  1  0
  8 16  1  0
 10 11  1  0
 10 12  1  0
 12 15  1  6
 12 13  1  0
 12 14  1  0
 16 17  1  6
 16 18  1  0
 16 19  1  0
M  END
$$$$
