PCONF21/99/struc.xyz
     RDKit          3D

 37 37  0  0  0  0  0  0  0  0999 V2000
    1.1720    0.2000   -1.1640 O   0  0  0  0  0  0  0  0  0  0  0  0
    2.1840    0.2440   -0.5030 C   0  0  0  0  0  0  0  0  0  0  0  0
    3.3050   -0.4360   -0.8110 O   0  0  0  0  0  0  0  0  0  0  0  0
    3.0890   -0.9540   -1.6010 H   0  0  0  0  0  0  0  0  0  0  0  0
    2.3770    1.0560    0.7620 C   0  0  0  0  0  0  0  0  0  0  0  0
    3.2620    1.6760    0.6290 H   0  0  0  0  0  0  0  0  0  0  0  0
    2.5640    0.3700    1.5850 H   0  0  0  0  0  0  0  0  0  0  0  0
    1.2360    1.8790    1.0440 N   0  0  0  0  0  0  0  0  0  0  0  0
    0.4280    1.4510    1.4790 H   0  0  0  0  0  0  0  0  0  0  0  0
    0.9800    2.9110    0.1850 C   0  0  0  0  0  0  0  0  0  0  0  0
    1.8160    3.3720   -0.5780 O   0  0  0  0  0  0  0  0  0  0  0  0
   -0.4660    3.3840    0.2110 C   0  0  0  0  0  0  0  0  0  0  0  0
   -0.5370    4.3070   -0.3550 H   0  0  0  0  0  0  0  0  0  0  0  0
   -0.8120    3.5390    1.2310 H   0  0  0  0  0  0  0  0  0  0  0  0
   -1.3020    2.3680   -0.4000 N   0  0  0  0  0  0  0  0  0  0  0  0
   -1.2970    2.2370   -1.4030 H   0  0  0  0  0  0  0  0  0  0  0  0
   -1.7310    1.3040    0.3070 C   0  0  0  0  0  0  0  0  0  0  0  0
   -1.6050    1.2070    1.5310 O   0  0  0  0  0  0  0  0  0  0  0  0
   -2.4270    0.2350   -0.5330 C   0  0  1  0  0  0  0  0  0  0  0  0
   -1.8780    0.2610   -1.8850 N   0  0  0  0  0  0  0  0  0  0  0  0
   -0.9300   -0.1050   -1.8760 H   0  0  0  0  0  0  0  0  0  0  0  0
   -2.4300   -0.3220   -2.5010 H   0  0  0  0  0  0  0  0  0  0  0  0
   -3.4730    0.5490   -0.6030 H   0  0  0  0  0  0  0  0  0  0  0  0
   -2.4080   -1.1230    0.1900 C   0  0  0  0  0  0  0  0  0  0  0  0
   -2.8240   -0.9810    1.1870 H   0  0  0  0  0  0  0  0  0  0  0  0
   -3.0720   -1.7940   -0.3580 H   0  0  0  0  0  0  0  0  0  0  0  0
   -1.0440   -1.7460    0.2850 C   0  0  0  0  0  0  0  0  0  0  0  0
   -0.5510   -2.5400   -0.7550 C   0  0  0  0  0  0  0  0  0  0  0  0
   -1.1730   -2.7250   -1.6220 H   0  0  0  0  0  0  0  0  0  0  0  0
    0.7140   -3.1210   -0.6800 C   0  0  0  0  0  0  0  0  0  0  0  0
    1.0710   -3.7410   -1.4920 H   0  0  0  0  0  0  0  0  0  0  0  0
    1.5070   -2.9210    0.4480 C   0  0  0  0  0  0  0  0  0  0  0  0
    2.4850   -3.3770    0.5160 H   0  0  0  0  0  0  0  0  0  0  0  0
    1.0220   -2.1410    1.4980 C   0  0  0  0  0  0  0  0  0  0  0  0
    1.6200   -2.0060    2.3900 H   0  0  0  0  0  0  0  0  0  0  0  0
   -0.2410   -1.5580    1.4160 C   0  0  0  0  0  0  0  0  0  0  0  0
   -0.6220   -0.9600    2.2340 H   0  0  0  0  0  0  0  0  0  0  0  0
  1  2  2  0
  2  3  1  0
  2  5  1  0
  3  4  1  0
  5  6  1  0
  5  8  1  0
  5  7  1  0
  8 10  1  0
  8  9  1  0
 10 11  2  0
 10 12  1  0
 12 15  1  0
 12 13  1  0
 12 14  1  0
 15 16  1  0
 15 17  1  0
 17 19  1  0
 17 18  2  0
 19 20  1  0
 19 23  1  6
 19 24  1  0
 20 22  1  0
 20 21  1  0
 24 26  1  0
 24 27  1  0
 24 25  1  0
 27 28  2  0
 27 36  1  0
 28 29  1  0
 28 30  1  0
 30 31  1  0
 30 32  2  0
 32 33  1  0
 32 34  1  0
 34 36  2  0
 34 35  1  0
 36 37  1  0
M  END
$$$$
