PCONF21/691/struc.xyz
     RDKit          3D

 37 37  0  0  0  0  0  0  0  0999 V2000
    3.1690   -1.4090    0.2460 O   0  0  0  0  0  0  0  0  0  0  0  0
    4.2000   -0.9800   -0.2160 C   0  0  0  0  0  0  0  0  0  0  0  0
    5.3610   -1.6690   -0.2200 O   0  0  0  0  0  0  0  0  0  0  0  0
    5.1690   -2.5130    0.2150 H   0  0  0  0  0  0  0  0  0  0  0  0
    4.3770    0.3710   -0.8790 C   0  0  0  0  0  0  0  0  0  0  0  0
    4.6710    0.2100   -1.9150 H   0  0  0  0  0  0  0  0  0  0  0  0
    5.1880    0.8910   -0.3750 H   0  0  0  0  0  0  0  0  0  0  0  0
    3.1810    1.1600   -0.8080 N   0  0  0  0  0  0  0  0  0  0  0  0
    2.3800    0.8610   -1.3580 H   0  0  0  0  0  0  0  0  0  0  0  0
    2.8680    1.7300    0.3930 C   0  0  0  0  0  0  0  0  0  0  0  0
    3.6690    1.8800    1.3050 O   0  0  0  0  0  0  0  0  0  0  0  0
    1.4000    2.1130    0.5110 C   0  0  0  0  0  0  0  0  0  0  0  0
    1.0390    2.5690   -0.4090 H   0  0  0  0  0  0  0  0  0  0  0  0
    1.2840    2.8030    1.3410 H   0  0  0  0  0  0  0  0  0  0  0  0
    0.6170    0.9190    0.7660 N   0  0  0  0  0  0  0  0  0  0  0  0
    0.5170    0.5430    1.7000 H   0  0  0  0  0  0  0  0  0  0  0  0
    0.3120    0.0580   -0.2190 C   0  0  0  0  0  0  0  0  0  0  0  0
    0.5320    0.2750   -1.4160 O   0  0  0  0  0  0  0  0  0  0  0  0
   -0.3110   -1.2530    0.2500 C   0  0  1  0  0  0  0  0  0  0  0  0
   -0.6280   -1.2010    1.6750 N   0  0  0  0  0  0  0  0  0  0  0  0
   -0.6080   -2.1310    2.0710 H   0  0  0  0  0  0  0  0  0  0  0  0
   -1.5700   -0.8450    1.8020 H   0  0  0  0  0  0  0  0  0  0  0  0
    0.4880   -1.9850    0.1120 H   0  0  0  0  0  0  0  0  0  0  0  0
   -1.4890   -1.6240   -0.6690 C   0  0  0  0  0  0  0  0  0  0  0  0
   -1.1410   -1.5700   -1.7000 H   0  0  0  0  0  0  0  0  0  0  0  0
   -1.7800   -2.6540   -0.4570 H   0  0  0  0  0  0  0  0  0  0  0  0
   -2.6590   -0.7090   -0.4530 C   0  0  0  0  0  0  0  0  0  0  0  0
   -3.6970   -1.0690    0.4130 C   0  0  0  0  0  0  0  0  0  0  0  0
   -3.6830   -2.0490    0.8760 H   0  0  0  0  0  0  0  0  0  0  0  0
   -4.7550   -0.1980    0.6690 C   0  0  0  0  0  0  0  0  0  0  0  0
   -5.5510   -0.4980    1.3380 H   0  0  0  0  0  0  0  0  0  0  0  0
   -4.7880    1.0530    0.0590 C   0  0  0  0  0  0  0  0  0  0  0  0
   -5.6080    1.7310    0.2520 H   0  0  0  0  0  0  0  0  0  0  0  0
   -3.7630    1.4220   -0.8120 C   0  0  0  0  0  0  0  0  0  0  0  0
   -3.7880    2.3880   -1.2970 H   0  0  0  0  0  0  0  0  0  0  0  0
   -2.7070    0.5510   -1.0650 C   0  0  0  0  0  0  0  0  0  0  0  0
   -1.9120    0.8370   -1.7420 H   0  0  0  0  0  0  0  0  0  0  0  0
  1  2  1  0
  2  5  1  0
  2  3  2  3
  3  4  1  0
  5  6  1  0
  5  8  1  0
  5  7  1  0
  8  9  1  0
  8 10  1  0
 10 12  1  0
 10 11  2  0
 12 13  1  0
 12 15  1  0
 12 14  1  0
 15 17  1  0
 15 16  1  0
 17 18  2  0
 17 19  1  0
 19 24  1  0
 19 23  1  1
 19 20  1  0
 20 22  1  0
 20 21  1  0
 24 25  1  0
 24 26  1  0
 24 27  1  0
 27 36  2  0
 27 28  1  0
 28 30  2  0
 28 29  1  0
 30 32  1  0
 30 31  1  0
 32 34  2  0
 32 33  1  0
 34 35  1  0
 34 36  1  0
 36 37  1  0
M  END
$$$$
