PCONF21/114/struc.xyz
     RDKit          3D

 37 37  0  0  0  0  0  0  0  0999 V2000
    4.1430    1.2990   -0.4410 O   0  0  0  0  0  0  0  0  0  0  0  0
    3.7320    0.1870   -0.2070 C   0  0  0  0  0  0  0  0  0  0  0  0
    4.0680   -0.8720   -0.9500 O   0  0  0  0  0  0  0  0  0  0  0  0
    3.6560   -1.6780   -0.5570 H   0  0  0  0  0  0  0  0  0  0  0  0
    2.8080   -0.1220    0.9680 C   0  0  0  0  0  0  0  0  0  0  0  0
    2.5850    0.8070    1.4800 H   0  0  0  0  0  0  0  0  0  0  0  0
    3.3320   -0.7960    1.6490 H   0  0  0  0  0  0  0  0  0  0  0  0
    1.5590   -0.7520    0.5810 N   0  0  0  0  0  0  0  0  0  0  0  0
    0.7360   -0.1800    0.4500 H   0  0  0  0  0  0  0  0  0  0  0  0
    1.5180   -2.0500    0.2400 C   0  0  0  0  0  0  0  0  0  0  0  0
    2.5310   -2.7580    0.1840 O   0  0  0  0  0  0  0  0  0  0  0  0
    0.1640   -2.6430   -0.0840 C   0  0  0  0  0  0  0  0  0  0  0  0
    0.1270   -3.6150    0.4080 H   0  0  0  0  0  0  0  0  0  0  0  0
    0.1160   -2.8160   -1.1590 H   0  0  0  0  0  0  0  0  0  0  0  0
   -0.9560   -1.8130    0.2630 N   0  0  0  0  0  0  0  0  0  0  0  0
   -1.1280   -1.5040    1.2100 H   0  0  0  0  0  0  0  0  0  0  0  0
   -1.8890   -1.4470   -0.6520 C   0  0  0  0  0  0  0  0  0  0  0  0
   -1.8510   -1.7460   -1.8390 O   0  0  0  0  0  0  0  0  0  0  0  0
   -2.9950   -0.5590   -0.0960 C   0  0  1  0  0  0  0  0  0  0  0  0
   -2.9730   -0.5300    1.3680 N   0  0  0  0  0  0  0  0  0  0  0  0
   -3.4570   -1.3410    1.7360 H   0  0  0  0  0  0  0  0  0  0  0  0
   -3.4870    0.2760    1.7030 H   0  0  0  0  0  0  0  0  0  0  0  0
   -3.9300   -0.9510   -0.5050 H   0  0  0  0  0  0  0  0  0  0  0  0
   -2.7940    0.8490   -0.6790 C   0  0  0  0  0  0  0  0  0  0  0  0
   -2.9990    0.7850   -1.7470 H   0  0  0  0  0  0  0  0  0  0  0  0
   -3.5450    1.5110   -0.2400 H   0  0  0  0  0  0  0  0  0  0  0  0
   -1.4160    1.4130   -0.4730 C   0  0  0  0  0  0  0  0  0  0  0  0
   -0.4550    1.2970   -1.4850 C   0  0  0  0  0  0  0  0  0  0  0  0
   -0.7160    0.7850   -2.4030 H   0  0  0  0  0  0  0  0  0  0  0  0
    0.8210    1.8360   -1.3240 C   0  0  0  0  0  0  0  0  0  0  0  0
    1.5540    1.7430   -2.1140 H   0  0  0  0  0  0  0  0  0  0  0  0
    1.1570    2.5010   -0.1450 C   0  0  0  0  0  0  0  0  0  0  0  0
    2.1480    2.9160   -0.0280 H   0  0  0  0  0  0  0  0  0  0  0  0
    0.2120    2.6080    0.8760 C   0  0  0  0  0  0  0  0  0  0  0  0
    0.4620    3.1240    1.7940 H   0  0  0  0  0  0  0  0  0  0  0  0
   -1.0620    2.0660    0.7130 C   0  0  0  0  0  0  0  0  0  0  0  0
   -1.7930    2.1710    1.5050 H   0  0  0  0  0  0  0  0  0  0  0  0
  1  2  1  0
  2  3  2  3
  2  5  1  0
  3  4  1  0
  5  8  1  0
  5  6  1  0
  5  7  1  0
  8 10  1  0
  8  9  1  0
 10 12  1  0
 10 11  2  0
 12 14  1  0
 12 15  1  0
 12 13  1  0
 15 17  1  0
 15 16  1  0
 17 18  2  0
 17 19  1  0
 19 24  1  0
 19 23  1  1
 19 20  1  0
 20 22  1  0
 20 21  1  0
 24 25  1  0
 24 27  1  0
 24 26  1  0
 27 28  2  0
 27 36  1  0
 28 29  1  0
 28 30  1  0
 30 31  1  0
 30 32  2  0
 32 33  1  0
 32 34  1  0
 34 36  2  0
 34 35  1  0
 36 37  1  0
M  END
$$$$
