 energy: -42.470211010797 gnorm: 0.000019040343 xtb: 6.5.1 (9af7eec)
     RDKit          3D

 31 30  0  0  0  0  0  0  0  0999 V2000
   -1.8067   -1.0079   -0.4356 N   0  0  0  0  0  0  0  0  0  0  0  0
   -0.6768   -0.5349    0.3601 C   0  0  2  0  0  0  0  0  0  0  0  0
    0.4424    0.0735   -0.5097 C   0  0  0  0  0  0  0  0  0  0  0  0
    0.7653    1.2394   -0.3812 O   0  0  0  0  0  0  0  0  0  0  0  0
   -0.1413   -1.6430    1.2781 C   0  0  2  0  0  0  0  0  0  0  0  0
    1.1070   -1.2375    2.0698 C   0  0  1  0  0  0  0  0  0  0  0  0
    0.8547   -0.0119    2.9446 C   0  0  1  0  0  0  0  0  0  0  0  0
    1.5617   -2.4182    2.9260 C   0  0  2  0  0  0  0  0  0  0  0  0
   -2.6513   -0.4637   -0.3649 H   0  0  0  0  0  0  0  0  0  0  0  0
   -1.0577    0.2879    0.9709 H   0  0  0  0  0  0  0  0  0  0  0  0
    0.0920   -2.5199    0.6733 H   0  0  0  0  0  0  0  0  0  0  0  0
   -0.9360   -1.9224    1.9757 H   0  0  0  0  0  0  0  0  0  0  0  0
    1.9056   -0.9943    1.3613 H   0  0  0  0  0  0  0  0  0  0  0  0
    1.7125    0.1696    3.5879 H   0  0  0  0  0  0  0  0  0  0  0  0
    0.7029    0.8731    2.3330 H   0  0  0  0  0  0  0  0  0  0  0  0
   -0.0193   -0.1635    3.5756 H   0  0  0  0  0  0  0  0  0  0  0  0
    0.7987   -2.6703    3.6599 H   0  0  0  0  0  0  0  0  0  0  0  0
    2.4788   -2.1735    3.4563 H   0  0  0  0  0  0  0  0  0  0  0  0
    1.7463   -3.2941    2.3082 H   0  0  0  0  0  0  0  0  0  0  0  0
    1.0129   -0.7852   -1.3622 N   0  0  0  0  0  0  0  0  0  0  0  0
    0.6222   -1.7196   -1.4515 H   0  0  0  0  0  0  0  0  0  0  0  0
    2.0699   -0.3949   -2.2611 C   0  0  1  0  0  0  0  0  0  0  0  0
    1.7450   -0.4792   -3.3001 H   0  0  0  0  0  0  0  0  0  0  0  0
    2.3294    0.6408   -2.0463 H   0  0  0  0  0  0  0  0  0  0  0  0
    2.9455   -1.0288   -2.1114 H   0  0  0  0  0  0  0  0  0  0  0  0
   -1.8428   -2.0905   -1.2375 C   0  0  0  0  0  0  0  0  0  0  0  0
   -0.8823   -2.8086   -1.4583 O   0  0  0  0  0  0  0  0  0  0  0  0
   -3.2021   -2.3383   -1.8550 C   0  0  2  0  0  0  0  0  0  0  0  0
   -3.9497   -2.4813   -1.0779 H   0  0  0  0  0  0  0  0  0  0  0  0
   -3.1548   -3.2289   -2.4746 H   0  0  0  0  0  0  0  0  0  0  0  0
   -3.4931   -1.4895   -2.4703 H   0  0  0  0  0  0  0  0  0  0  0  0
  1  9  1  0
  1 26  1  0
  1  2  1  0
  2  5  1  0
  2  3  1  0
  2 10  1  1
  3  4  1  0
  3 20  1  0
  5 12  1  1
  5  6  1  0
  5 11  1  0
  6 13  1  6
  6  7  1  0
  6  8  1  0
  7 16  1  1
  7 15  1  0
  7 14  1  0
  8 18  1  1
  8 19  1  0
  8 17  1  0
 20 22  1  0
 20 21  1  0
 22 25  1  6
 22 24  1  0
 22 23  1  0
 26 28  1  0
 26 27  1  0
 28 31  1  6
 28 29  1  0
 28 30  1  0
M  END
$$$$
