 energy: -42.467214419911 gnorm: 0.000044104404 xtb: 6.5.1 (9af7eec)
     RDKit          3D

 31 30  0  0  0  0  0  0  0  0999 V2000
   -0.4964   -0.7767   -0.3724 N   0  0  0  0  0  0  0  0  0  0  0  0
    0.0233    0.5742   -0.4783 C   0  0  2  0  0  0  0  0  0  0  0  0
   -0.6492    1.3820   -1.6177 C   0  0  0  0  0  0  0  0  0  0  0  0
   -0.0225    1.9762   -2.4704 O   0  0  0  0  0  0  0  0  0  0  0  0
    1.5531    0.5988   -0.5917 C   0  0  2  0  0  0  0  0  0  0  0  0
    2.2101   -0.4918   -1.4504 C   0  0  1  0  0  0  0  0  0  0  0  0
    1.6498   -0.5405   -2.8693 C   0  0  1  0  0  0  0  0  0  0  0  0
    3.7154   -0.2279   -1.5007 C   0  0  2  0  0  0  0  0  0  0  0  0
    0.0617   -1.5064   -0.7842 H   0  0  0  0  0  0  0  0  0  0  0  0
   -0.2713    1.0941    0.4453 H   0  0  0  0  0  0  0  0  0  0  0  0
    1.9805    0.5420    0.4120 H   0  0  0  0  0  0  0  0  0  0  0  0
    1.8138    1.5693   -1.0183 H   0  0  0  0  0  0  0  0  0  0  0  0
    2.0688   -1.4700   -0.9701 H   0  0  0  0  0  0  0  0  0  0  0  0
    2.2018   -1.2642   -3.4663 H   0  0  0  0  0  0  0  0  0  0  0  0
    0.5985   -0.8191   -2.8820 H   0  0  0  0  0  0  0  0  0  0  0  0
    1.7358    0.4371   -3.3346 H   0  0  0  0  0  0  0  0  0  0  0  0
    3.9132    0.7208   -1.9932 H   0  0  0  0  0  0  0  0  0  0  0  0
    4.2215   -1.0147   -2.0555 H   0  0  0  0  0  0  0  0  0  0  0  0
    4.1363   -0.1904   -0.4981 H   0  0  0  0  0  0  0  0  0  0  0  0
   -1.9877    1.3857   -1.5236 N   0  0  0  0  0  0  0  0  0  0  0  0
   -2.4244    0.9610   -0.7116 H   0  0  0  0  0  0  0  0  0  0  0  0
   -2.8259    2.1177   -2.4410 C   0  0  1  0  0  0  0  0  0  0  0  0
   -3.3572    2.9183   -1.9232 H   0  0  0  0  0  0  0  0  0  0  0  0
   -2.1853    2.5483   -3.2091 H   0  0  0  0  0  0  0  0  0  0  0  0
   -3.5544    1.4503   -2.9049 H   0  0  0  0  0  0  0  0  0  0  0  0
   -1.6198   -1.1064    0.2915 C   0  0  0  0  0  0  0  0  0  0  0  0
   -2.3759   -0.2717    0.7601 O   0  0  0  0  0  0  0  0  0  0  0  0
   -1.8650   -2.5954    0.3859 C   0  0  2  0  0  0  0  0  0  0  0  0
   -1.9512   -3.0236   -0.6105 H   0  0  0  0  0  0  0  0  0  0  0  0
   -2.7863   -2.7726    0.9326 H   0  0  0  0  0  0  0  0  0  0  0  0
   -1.0408   -3.0797    0.9051 H   0  0  0  0  0  0  0  0  0  0  0  0
  1  9  1  0
  1 26  1  0
  1  2  1  0
  2  5  1  0
  2  3  1  0
  2 10  1  1
  3  4  1  0
  3 20  1  0
  5 12  1  6
  5  6  1  0
  5 11  1  0
  6 13  1  1
  6  7  1  0
  6  8  1  0
  7 16  1  6
  7 15  1  0
  7 14  1  0
  8 18  1  6
  8 19  1  0
  8 17  1  0
 20 22  1  0
 20 21  1  0
 22 25  1  6
 22 24  1  0
 22 23  1  0
 26 28  1  0
 26 27  1  0
 28 31  1  1
 28 29  1  0
 28 30  1  0
M  END
$$$$
