SCONF/G2/struc.xyz
     RDKit          3D

 24 24  0  0  0  0  0  0  0  0999 V2000
   -1.2500   -1.2090   -0.2790 C   0  0  2  0  0  0  0  0  0  0  0  0
    0.0420   -1.5060    0.2370 O   0  0  0  0  0  0  0  0  0  0  0  0
    1.0530   -0.5920   -0.2120 C   0  0  1  0  0  0  0  0  0  0  0  0
    0.6960    0.8150    0.2950 C   0  0  2  0  0  0  0  0  0  0  0  0
   -1.7160    0.1670    0.2040 C   0  0  1  0  0  0  0  0  0  0  0  0
   -0.6900    1.2210   -0.1970 C   0  0  1  0  0  0  0  0  0  0  0  0
    1.0930   -0.5860   -1.3130 H   0  0  0  0  0  0  0  0  0  0  0  0
   -0.9780    2.4980    0.3660 O   0  0  0  0  0  0  0  0  0  0  0  0
   -2.9580    0.5490   -0.3790 O   0  0  0  0  0  0  0  0  0  0  0  0
   -2.1590   -2.1500    0.2110 O   0  0  0  0  0  0  0  0  0  0  0  0
    1.6940    1.7290   -0.1620 O   0  0  0  0  0  0  0  0  0  0  0  0
   -3.6320   -0.0960   -0.1100 H   0  0  0  0  0  0  0  0  0  0  0  0
    2.4000   -1.0970    0.3170 C   0  0  2  0  0  0  0  0  0  0  0  0
   -1.8960   -3.0340   -0.0920 H   0  0  0  0  0  0  0  0  0  0  0  0
    1.3990    2.6270    0.0640 H   0  0  0  0  0  0  0  0  0  0  0  0
   -1.8740    2.7540    0.0910 H   0  0  0  0  0  0  0  0  0  0  0  0
    2.4900   -2.1630    0.0900 H   0  0  0  0  0  0  0  0  0  0  0  0
   -0.6710    1.2970   -1.2960 H   0  0  0  0  0  0  0  0  0  0  0  0
   -1.7980    0.1290    1.3000 H   0  0  0  0  0  0  0  0  0  0  0  0
   -1.2120   -1.2340   -1.3830 H   0  0  0  0  0  0  0  0  0  0  0  0
    0.6860    0.7990    1.3950 H   0  0  0  0  0  0  0  0  0  0  0  0
    3.4960   -0.4510   -0.3100 O   0  0  0  0  0  0  0  0  0  0  0  0
    3.3530    0.5100   -0.2460 H   0  0  0  0  0  0  0  0  0  0  0  0
    2.4330   -0.9790    1.4120 H   0  0  0  0  0  0  0  0  0  0  0  0
  1 20  1  6
  1  5  1  0
  1 10  1  0
  1  2  1  0
  2  3  1  0
  3  7  1  6
  3  4  1  0
  3 13  1  0
  4  6  1  0
  4 11  1  0
  4 21  1  1
  5  9  1  0
  5  6  1  0
  5 19  1  1
  6 18  1  6
  6  8  1  0
  8 16  1  0
  9 12  1  0
 10 14  1  0
 11 15  1  0
 13 22  1  0
 13 17  1  1
 13 24  1  0
 22 23  1  0
M  END
$$$$
