Coordinates from ORCA-job xat
     RDKit          3D

 33 32  0  0  0  0  0  0  0  0999 V2000
    1.7040   -1.0600    0.5870 N   0  0  0  0  0  0  0  0  0  0  0  0
    0.4020   -0.4380    0.3990 C   0  0  2  0  0  0  0  0  0  0  0  0
    0.5690    1.0840    0.4420 C   0  0  0  0  0  0  0  0  0  0  0  0
    0.3750    1.7420    1.4600 O   0  0  0  0  0  0  0  0  0  0  0  0
   -0.5690   -0.9300    1.4570 C   0  0  1  0  0  0  0  0  0  0  0  0
   -1.9720   -0.3450    1.3070 C   0  0  2  0  0  0  0  0  0  0  0  0
    2.0030   -1.2700    1.5250 H   0  0  0  0  0  0  0  0  0  0  0  0
    0.0720   -0.7320   -0.5960 H   0  0  0  0  0  0  0  0  0  0  0  0
   -0.6100   -2.0200    1.3890 H   0  0  0  0  0  0  0  0  0  0  0  0
   -1.9400    0.7160    1.5530 H   0  0  0  0  0  0  0  0  0  0  0  0
   -2.6220   -0.8210    2.0450 H   0  0  0  0  0  0  0  0  0  0  0  0
    0.9680    1.6130   -0.7390 N   0  0  0  0  0  0  0  0  0  0  0  0
    1.3220    0.9550   -1.4220 H   0  0  0  0  0  0  0  0  0  0  0  0
    1.3410    3.0100   -0.8230 C   0  0  2  0  0  0  0  0  0  0  0  0
    2.3300    3.1960   -0.4000 H   0  0  0  0  0  0  0  0  0  0  0  0
    0.6200    3.5990   -0.2630 H   0  0  0  0  0  0  0  0  0  0  0  0
    1.3330    3.3200   -1.8630 H   0  0  0  0  0  0  0  0  0  0  0  0
    2.5770   -1.2110   -0.4400 C   0  0  0  0  0  0  0  0  0  0  0  0
    2.3120   -0.8470   -1.5860 O   0  0  0  0  0  0  0  0  0  0  0  0
    3.8890   -1.8680   -0.0980 C   0  0  2  0  0  0  0  0  0  0  0  0
    4.6950   -1.1760   -0.3330 H   0  0  0  0  0  0  0  0  0  0  0  0
    4.0110   -2.7430   -0.7310 H   0  0  0  0  0  0  0  0  0  0  0  0
    3.9620   -2.1660    0.9450 H   0  0  0  0  0  0  0  0  0  0  0  0
   -0.1740   -0.6660    2.4400 H   0  0  0  0  0  0  0  0  0  0  0  0
   -2.5750   -0.5330   -0.0800 C   0  0  2  0  0  0  0  0  0  0  0  0
   -2.5000   -1.5830   -0.3830 H   0  0  0  0  0  0  0  0  0  0  0  0
   -2.0170    0.0490   -0.8180 H   0  0  0  0  0  0  0  0  0  0  0  0
   -4.0370   -0.1010   -0.1340 C   0  0  1  0  0  0  0  0  0  0  0  0
   -4.6140   -0.6940    0.5790 H   0  0  0  0  0  0  0  0  0  0  0  0
   -4.1160    0.9360    0.1950 H   0  0  0  0  0  0  0  0  0  0  0  0
   -4.6880   -0.2090   -1.4380 N   0  0  0  0  0  0  0  0  0  0  0  0
   -4.1800    0.3490   -2.1140 H   0  0  0  0  0  0  0  0  0  0  0  0
   -4.6220   -1.1650   -1.7690 H   0  0  0  0  0  0  0  0  0  0  0  0
  1 18  1  0
  1  2  1  0
  1  7  1  0
  2  8  1  6
  2  3  1  0
  2  5  1  0
  3 12  1  0
  3  4  1  0
  5  6  1  0
  5  9  1  1
  5 24  1  0
  6 25  1  0
  6 10  1  1
  6 11  1  0
 12 13  1  0
 12 14  1  0
 14 17  1  6
 14 15  1  0
 14 16  1  0
 18 19  1  0
 18 20  1  0
 20 22  1  6
 20 21  1  0
 20 23  1  0
 25 27  1  6
 25 26  1  0
 25 28  1  0
 28 31  1  0
 28 30  1  1
 28 29  1  0
 31 32  1  0
 31 33  1  0
M  END
$$$$
