-46.27038493
     RDKit          3D

 29 29  0  0  1  0  0  0  0  0999 V2000
    1.9076   -0.5316    0.1872 N   0  0  0  0  0  0  0  0  0  0  0  0
    2.4251   -0.1480    0.9679 H   0  0  0  0  0  0  0  0  0  0  0  0
    0.5561   -0.0441    0.0262 C   0  0  1  0  0  0  0  0  0  0  0  0
    0.2021   -0.2928   -0.9787 H   0  0  0  0  0  0  0  0  0  0  0  0
   -0.3983   -0.6697    1.0667 C   0  0  1  0  0  0  0  0  0  0  0  0
    0.5828    1.4846    0.1680 C   0  0  0  0  0  0  0  0  0  0  0  0
   -0.2299   -1.7471    1.0930 H   0  0  0  0  0  0  0  0  0  0  0  0
   -0.1626   -0.2532    2.0486 H   0  0  0  0  0  0  0  0  0  0  0  0
   -1.8215   -0.3978    0.7318 C   0  0  0  0  0  0  0  0  0  0  0  0
    0.0791    2.0690    1.1101 O   0  0  0  0  0  0  0  0  0  0  0  0
   -2.4242    0.7966    1.0212 N   0  0  0  0  0  0  0  0  0  0  0  0
   -2.7813   -1.1414    0.0985 C   0  0  0  0  0  0  0  0  0  0  0  0
   -1.9466    1.5762    1.4508 H   0  0  0  0  0  0  0  0  0  0  0  0
   -3.6913    0.7209    0.5571 C   0  0  0  0  0  0  0  0  0  0  0  0
   -3.9361   -0.4328    0.0008 N   0  0  0  0  0  0  0  0  0  0  0  0
   -2.7163   -2.1415   -0.2811 H   0  0  0  0  0  0  0  0  0  0  0  0
   -4.4010    1.5185    0.6472 H   0  0  0  0  0  0  0  0  0  0  0  0
    2.4887   -1.6183   -0.3900 C   0  0  0  0  0  0  0  0  0  0  0  0
    1.6936   -2.3167   -1.4685 C   0  0  2  0  0  0  0  0  0  0  0  0
    3.6025   -1.9600   -0.0580 O   0  0  0  0  0  0  0  0  0  0  0  0
    1.5275   -1.6513   -2.3132 H   0  0  0  0  0  0  0  0  0  0  0  0
    0.7319   -2.6485   -1.0859 H   0  0  0  0  0  0  0  0  0  0  0  0
    2.2618   -3.1783   -1.8070 H   0  0  0  0  0  0  0  0  0  0  0  0
    1.2206    2.1580   -0.8038 N   0  0  0  0  0  0  0  0  0  0  0  0
    1.8263    1.6266   -2.0015 C   0  0  1  0  0  0  0  0  0  0  0  0
    1.2316    3.1611   -0.6818 H   0  0  0  0  0  0  0  0  0  0  0  0
    2.3144    2.4372   -2.5357 H   0  0  0  0  0  0  0  0  0  0  0  0
    2.5736    0.8700   -1.7589 H   0  0  0  0  0  0  0  0  0  0  0  0
    1.0732    1.1845   -2.6596 H   0  0  0  0  0  0  0  0  0  0  0  0
  1  2  1  0
  3  4  1  6
  3  6  1  0
  3  1  1  0
  3  5  1  0
  5  7  1  1
  5  8  1  0
  6 10  2  0
  9 11  1  0
  9  5  1  0
 11 13  1  0
 12  9  2  0
 14 17  1  0
 14 11  1  0
 15 12  1  0
 15 14  2  0
 16 12  1  0
 18 20  2  0
 18  1  1  0
 19 22  1  1
 19 18  1  0
 21 19  1  0
 23 19  1  0
 24 26  1  0
 24  6  1  0
 25 28  1  1
 25 24  1  0
 27 25  1  0
 29 25  1  0
M  END
$$$$
