-46.27028531
     RDKit          3D

 29 29  0  0  1  0  0  0  0  0999 V2000
    0.9576   -0.5115    0.1972 N   0  0  0  0  0  0  0  0  0  0  0  0
    1.0164   -0.8111    1.1574 H   0  0  0  0  0  0  0  0  0  0  0  0
    0.3697    0.7913   -0.0409 C   0  0  1  0  0  0  0  0  0  0  0  0
    0.1300    0.8440   -1.1042 H   0  0  0  0  0  0  0  0  0  0  0  0
   -0.8931    0.9724    0.8062 C   0  0  1  0  0  0  0  0  0  0  0  0
    1.3984    1.8630    0.3611 C   0  0  0  0  0  0  0  0  0  0  0  0
   -0.5925    1.0616    1.8552 H   0  0  0  0  0  0  0  0  0  0  0  0
   -1.3651    1.9192    0.5232 H   0  0  0  0  0  0  0  0  0  0  0  0
   -1.8540   -0.1540    0.6432 C   0  0  0  0  0  0  0  0  0  0  0  0
    1.5231    2.2089    1.5221 O   0  0  0  0  0  0  0  0  0  0  0  0
   -2.8111   -0.4286    1.5877 N   0  0  0  0  0  0  0  0  0  0  0  0
   -2.0352   -1.0974   -0.3315 C   0  0  0  0  0  0  0  0  0  0  0  0
   -2.9611    0.0886    2.4385 H   0  0  0  0  0  0  0  0  0  0  0  0
   -3.5109   -1.5021    1.1427 C   0  0  0  0  0  0  0  0  0  0  0  0
   -3.0641   -1.9242   -0.0031 N   0  0  0  0  0  0  0  0  0  0  0  0
   -1.4942   -1.2381   -1.2450 H   0  0  0  0  0  0  0  0  0  0  0  0
   -4.3268   -1.9368    1.6842 H   0  0  0  0  0  0  0  0  0  0  0  0
    1.3784   -1.3273   -0.7939 C   0  0  0  0  0  0  0  0  0  0  0  0
    1.8503   -2.6789   -0.3127 C   0  0  2  0  0  0  0  0  0  0  0  0
    1.3662   -0.9916   -1.9619 O   0  0  0  0  0  0  0  0  0  0  0  0
    2.2826   -3.2259   -1.1452 H   0  0  0  0  0  0  0  0  0  0  0  0
    1.0010   -3.2375    0.0758 H   0  0  0  0  0  0  0  0  0  0  0  0
    2.5909   -2.5687    0.4758 H   0  0  0  0  0  0  0  0  0  0  0  0
    2.1822    2.3634   -0.6065 N   0  0  0  0  0  0  0  0  0  0  0  0
    2.1650    2.0923   -2.0267 C   0  0  1  0  0  0  0  0  0  0  0  0
    2.8337    3.0676   -0.2864 H   0  0  0  0  0  0  0  0  0  0  0  0
    3.1346    2.3574   -2.4422 H   0  0  0  0  0  0  0  0  0  0  0  0
    1.9849    1.0351   -2.2226 H   0  0  0  0  0  0  0  0  0  0  0  0
    1.3969    2.6854   -2.5316 H   0  0  0  0  0  0  0  0  0  0  0  0
  1  2  1  0
  3  4  1  6
  3  1  1  0
  3  6  1  0
  3  5  1  0
  5  7  1  1
  6 10  2  0
  8  5  1  0
  9  5  1  0
  9 11  1  0
 11 13  1  0
 12 15  1  0
 12  9  2  0
 14 11  1  0
 14 17  1  0
 15 14  2  0
 16 12  1  0
 18 19  1  0
 18  1  1  0
 19 22  1  1
 19 23  1  0
 20 18  2  0
 21 19  1  0
 24 26  1  0
 24  6  1  0
 25 24  1  0
 25 27  1  6
 28 25  1  0
 29 25  1  0
M  END
$$$$
