-46.27655727
     RDKit          3D

 29 29  0  0  1  0  0  0  0  0999 V2000
    0.8978   -0.6835    0.0543 N   0  0  0  0  0  0  0  0  0  0  0  0
    0.1995   -0.9350    0.7405 H   0  0  0  0  0  0  0  0  0  0  0  0
    0.5125    0.3689   -0.8627 C   0  0  1  0  0  0  0  0  0  0  0  0
    1.2367    0.3515   -1.6862 H   0  0  0  0  0  0  0  0  0  0  0  0
   -0.8985    0.0940   -1.4274 C   0  0  1  0  0  0  0  0  0  0  0  0
    0.5833    1.7436   -0.1830 C   0  0  0  0  0  0  0  0  0  0  0  0
   -1.2349    0.9837   -1.9625 H   0  0  0  0  0  0  0  0  0  0  0  0
   -0.8340   -0.7392   -2.1285 H   0  0  0  0  0  0  0  0  0  0  0  0
   -1.8715   -0.2538   -0.3553 C   0  0  0  0  0  0  0  0  0  0  0  0
   -0.4001    2.4505   -0.0273 O   0  0  0  0  0  0  0  0  0  0  0  0
   -2.4515    0.6862    0.4517 N   0  0  0  0  0  0  0  0  0  0  0  0
   -2.3515   -1.4577    0.0917 C   0  0  0  0  0  0  0  0  0  0  0  0
   -2.2218    1.6701    0.4052 H   0  0  0  0  0  0  0  0  0  0  0  0
   -3.2345    0.0232    1.3303 C   0  0  0  0  0  0  0  0  0  0  0  0
   -3.1987   -1.2669    1.1370 N   0  0  0  0  0  0  0  0  0  0  0  0
   -2.1517   -2.4421   -0.2833 H   0  0  0  0  0  0  0  0  0  0  0  0
   -3.8151    0.5102    2.0878 H   0  0  0  0  0  0  0  0  0  0  0  0
    1.8923   -1.5638   -0.2211 C   0  0  0  0  0  0  0  0  0  0  0  0
    1.9485   -2.7314    0.7346 C   0  0  2  0  0  0  0  0  0  0  0  0
    2.6782   -1.3900   -1.1299 O   0  0  0  0  0  0  0  0  0  0  0  0
    1.0547   -3.3416    0.6217 H   0  0  0  0  0  0  0  0  0  0  0  0
    1.9983   -2.3771    1.7614 H   0  0  0  0  0  0  0  0  0  0  0  0
    2.8237   -3.3354    0.5152 H   0  0  0  0  0  0  0  0  0  0  0  0
    1.7881    2.1640    0.2290 N   0  0  0  0  0  0  0  0  0  0  0  0
    3.0785    1.5247    0.1532 C   0  0  1  0  0  0  0  0  0  0  0  0
    1.7694    3.0644    0.6917 H   0  0  0  0  0  0  0  0  0  0  0  0
    3.8299    2.2689   -0.1107 H   0  0  0  0  0  0  0  0  0  0  0  0
    3.3488    1.0838    1.1167 H   0  0  0  0  0  0  0  0  0  0  0  0
    3.0887    0.7402   -0.5986 H   0  0  0  0  0  0  0  0  0  0  0  0
  1  2  1  0
  3  4  1  6
  3  6  1  0
  3  1  1  0
  5  3  1  0
  5  9  1  0
  6 10  2  0
  6 24  1  0
  5  7  1  6
  8  5  1  0
  9 12  2  0
  9 11  1  0
 11 14  1  0
 12 15  1  0
 13 11  1  0
 14 17  1  0
 15 14  2  0
 16 12  1  0
 18  1  1  0
 18 19  1  0
 19 22  1  1
 20 18  2  0
 21 19  1  0
 23 19  1  0
 24 26  1  0
 25 24  1  0
 25 28  1  1
 27 25  1  0
 29 25  1  0
M  END
$$$$
