-46.27505171
     RDKit          3D

 29 29  0  0  1  0  0  0  0  0999 V2000
    1.7689   -1.0522    0.3362 N   0  0  0  0  0  0  0  0  0  0  0  0
    2.0577   -1.0518    1.3023 H   0  0  0  0  0  0  0  0  0  0  0  0
    0.4839   -0.4469    0.0497 C   0  0  1  0  0  0  0  0  0  0  0  0
    0.2201   -0.7119   -0.9756 H   0  0  0  0  0  0  0  0  0  0  0  0
   -0.5817   -0.9789    1.0233 C   0  0  1  0  0  0  0  0  0  0  0  0
    0.6114    1.0757    0.2099 C   0  0  0  0  0  0  0  0  0  0  0  0
   -0.6657   -2.0595    0.9042 H   0  0  0  0  0  0  0  0  0  0  0  0
   -0.2599   -0.7535    2.0437 H   0  0  0  0  0  0  0  0  0  0  0  0
   -1.9005   -0.3374    0.7709 C   0  0  0  0  0  0  0  0  0  0  0  0
    0.5741    1.6001    1.3129 O   0  0  0  0  0  0  0  0  0  0  0  0
   -2.2131    0.8979    1.2747 N   0  0  0  0  0  0  0  0  0  0  0  0
   -2.9967   -0.7170    0.0446 C   0  0  0  0  0  0  0  0  0  0  0  0
   -1.5819    1.4672    1.8193 H   0  0  0  0  0  0  0  0  0  0  0  0
   -3.4556    1.1998    0.8341 C   0  0  0  0  0  0  0  0  0  0  0  0
   -3.9528    0.2472    0.0966 N   0  0  0  0  0  0  0  0  0  0  0  0
   -3.1581   -1.6235   -0.5031 H   0  0  0  0  0  0  0  0  0  0  0  0
   -3.9608    2.1132    1.0763 H   0  0  0  0  0  0  0  0  0  0  0  0
    2.6343   -1.4521   -0.6234 C   0  0  0  0  0  0  0  0  0  0  0  0
    3.9233   -2.0236   -0.0779 C   0  0  2  0  0  0  0  0  0  0  0  0
    2.3828   -1.3644   -1.8082 O   0  0  0  0  0  0  0  0  0  0  0  0
    4.5354   -2.3758   -0.9028 H   0  0  0  0  0  0  0  0  0  0  0  0
    3.7133   -2.8513    0.5955 H   0  0  0  0  0  0  0  0  0  0  0  0
    4.4670   -1.2559    0.4688 H   0  0  0  0  0  0  0  0  0  0  0  0
    0.7928    1.8038   -0.8989 N   0  0  0  0  0  0  0  0  0  0  0  0
    0.8154    1.3657   -2.2774 C   0  0  1  0  0  0  0  0  0  0  0  0
    0.8571    2.8001   -0.7365 H   0  0  0  0  0  0  0  0  0  0  0  0
    1.4112    0.4590   -2.3897 H   0  0  0  0  0  0  0  0  0  0  0  0
   -0.1974    1.1783   -2.6448 H   0  0  0  0  0  0  0  0  0  0  0  0
    1.2644    2.1499   -2.8819 H   0  0  0  0  0  0  0  0  0  0  0  0
  1  2  1  0
  3  4  1  6
  3  6  1  0
  3  1  1  0
  3  5  1  0
  5  8  1  1
  6 10  2  0
  7  5  1  0
  9  5  1  0
  9 11  1  0
 11 13  1  0
 12 15  1  0
 12  9  2  0
 14 17  1  0
 14 11  1  0
 15 14  2  0
 16 12  1  0
 18 19  1  0
 18  1  1  0
 19 23  1  1
 19 22  1  0
 20 18  2  0
 21 19  1  0
 24 26  1  0
 24  6  1  0
 25 24  1  0
 25 27  1  1
 28 25  1  0
 29 25  1  0
M  END
$$$$
