-46.27397051
     RDKit          3D

 29 29  0  0  1  0  0  0  0  0999 V2000
    0.9689   -1.2740    0.1255 N   0  0  0  0  0  0  0  0  0  0  0  0
    0.1316   -1.6037    0.5918 H   0  0  0  0  0  0  0  0  0  0  0  0
    0.7582   -0.3622   -0.9673 C   0  0  1  0  0  0  0  0  0  0  0  0
    1.5554   -0.4786   -1.7088 H   0  0  0  0  0  0  0  0  0  0  0  0
   -0.5941   -0.6666   -1.6494 C   0  0  1  0  0  0  0  0  0  0  0  0
    0.7398    1.1205   -0.5395 C   0  0  0  0  0  0  0  0  0  0  0  0
   -0.6535   -0.0736   -2.5637 H   0  0  0  0  0  0  0  0  0  0  0  0
   -0.6342   -1.7253   -1.9077 H   0  0  0  0  0  0  0  0  0  0  0  0
   -1.7246   -0.3148   -0.7482 C   0  0  0  0  0  0  0  0  0  0  0  0
    0.5179    2.0002   -1.3499 O   0  0  0  0  0  0  0  0  0  0  0  0
   -2.2025    0.9665   -0.6502 N   0  0  0  0  0  0  0  0  0  0  0  0
   -2.4409   -1.0356    0.1703 C   0  0  0  0  0  0  0  0  0  0  0  0
   -1.8528    1.7536   -1.1751 H   0  0  0  0  0  0  0  0  0  0  0  0
   -3.1652    0.9562    0.3008 C   0  0  0  0  0  0  0  0  0  0  0  0
   -3.3313   -0.2316    0.8087 N   0  0  0  0  0  0  0  0  0  0  0  0
   -2.3869   -2.0819    0.3975 H   0  0  0  0  0  0  0  0  0  0  0  0
   -3.7200    1.8270    0.5867 H   0  0  0  0  0  0  0  0  0  0  0  0
    2.1437   -1.7305    0.6356 C   0  0  0  0  0  0  0  0  0  0  0  0
    3.3988   -1.2522   -0.0565 C   0  0  2  0  0  0  0  0  0  0  0  0
    2.1496   -2.4686    1.5966 O   0  0  0  0  0  0  0  0  0  0  0  0
    4.2591   -1.6061    0.5042 H   0  0  0  0  0  0  0  0  0  0  0  0
    3.4231   -0.1664   -0.1141 H   0  0  0  0  0  0  0  0  0  0  0  0
    3.4456   -1.6597   -1.0644 H   0  0  0  0  0  0  0  0  0  0  0  0
    0.9533    1.3422    0.7650 N   0  0  0  0  0  0  0  0  0  0  0  0
    0.9218    2.6595    1.3521 C   0  0  1  0  0  0  0  0  0  0  0  0
    1.0921    0.5552    1.3815 H   0  0  0  0  0  0  0  0  0  0  0  0
    0.7966    3.3796    0.5449 H   0  0  0  0  0  0  0  0  0  0  0  0
    0.0882    2.7482    2.0513 H   0  0  0  0  0  0  0  0  0  0  0  0
    1.8544    2.8629    1.8794 H   0  0  0  0  0  0  0  0  0  0  0  0
  1  2  1  0
  1 18  1  0
  3  4  1  6
  3  6  1  0
  3  1  1  0
  5  3  1  0
  5  9  1  0
  6 24  1  0
  5  7  1  6
  8  5  1  0
  9 11  1  0
  9 12  2  0
 10  6  2  0
 11 14  1  0
 12 16  1  0
 12 15  1  0
 13 11  1  0
 14 17  1  0
 14 15  2  0
 18 20  2  0
 19 21  1  1
 19 18  1  0
 22 19  1  0
 23 19  1  0
 24 25  1  0
 24 26  1  0
 25 29  1  1
 25 28  1  0
 27 25  1  0
M  END
$$$$
