20
ACONF/H_tgg/struc.xyz
C          2.69400       -0.45600       -0.01900
C          1.33200       -0.01900        0.50500
C          0.48100        0.62800       -0.58100
C         -0.84900        1.18400       -0.07500
C         -1.75500        0.15400        0.59800
C         -2.09700       -1.02500       -0.30400
H          3.25200        0.39700       -0.40600
H          2.58200       -1.17300       -0.83200
H          3.29500       -0.92400        0.75900
H          1.46100        0.68900        1.32800
H          0.81000       -0.88200        0.92000
H          0.30400       -0.09800       -1.37800
H          1.05100        1.44200       -1.03600
H         -1.38900        1.63100       -0.91400
H         -0.64700        1.99500        0.62900
H         -2.67600        0.65100        0.90800
H         -1.28500       -0.20900        1.51400
H         -2.81300       -1.69200        0.17400
H         -1.21300       -1.61300       -0.54900
H         -2.53500       -0.68000       -1.24100
