20
ACONF/H_ggg/struc.xyz
C         -0.76100        2.19200       -0.48800
C         -1.32100        0.78700       -0.29700
C         -0.76100        0.07800        0.93400
C          0.76100       -0.07800        0.93400
C          1.32100       -0.78700       -0.29700
C          0.76100       -2.19200       -0.48800
H          0.31000        2.17300       -0.68500
H         -0.92200        2.79600        0.40500
H         -1.24000        2.69700       -1.32500
H         -1.12400        0.19100       -1.19000
H         -2.40700        0.84300       -0.20400
H         -1.22800       -0.90400        1.02600
H         -1.05400        0.63800        1.82600
H          1.05400       -0.63800        1.82600
H          1.22800        0.90400        1.02600
H          2.40700       -0.84300       -0.20400
H          1.12400       -0.19100       -1.19000
H          1.24000       -2.69700       -1.32500
H         -0.31000       -2.17300       -0.68500
H          0.92200       -2.79600        0.40500
