ACONF/H_g+t+g-/struc.xyz
     RDKit          3D

 20 19  0  0  0  0  0  0  0  0999 V2000
   -0.4880   -0.0790    2.7100 C   0  0  2  0  0  0  0  0  0  0  0  0
    0.7150    0.1980    1.8160 C   0  0  2  0  0  0  0  0  0  0  0  0
    0.5580   -0.3370    0.3950 C   0  0  2  0  0  0  0  0  0  0  0  0
   -0.5580    0.3370   -0.3950 C   0  0  2  0  0  0  0  0  0  0  0  0
   -0.7150   -0.1980   -1.8160 C   0  0  2  0  0  0  0  0  0  0  0  0
    0.4880    0.0790   -2.7100 C   0  0  2  0  0  0  0  0  0  0  0  0
   -0.7080   -1.1470    2.7370 H   0  0  0  0  0  0  0  0  0  0  0  0
   -1.3810    0.4350    2.3570 H   0  0  0  0  0  0  0  0  0  0  0  0
   -0.3040    0.2500    3.7310 H   0  0  0  0  0  0  0  0  0  0  0  0
    1.6030   -0.2490    2.2670 H   0  0  0  0  0  0  0  0  0  0  0  0
    0.9000    1.2740    1.7730 H   0  0  0  0  0  0  0  0  0  0  0  0
    0.3660   -1.4140    0.4360 H   0  0  0  0  0  0  0  0  0  0  0  0
    1.5040   -0.2110   -0.1340 H   0  0  0  0  0  0  0  0  0  0  0  0
   -0.3660    1.4140   -0.4360 H   0  0  0  0  0  0  0  0  0  0  0  0
   -1.5040    0.2110    0.1340 H   0  0  0  0  0  0  0  0  0  0  0  0
   -1.6030    0.2490   -2.2670 H   0  0  0  0  0  0  0  0  0  0  0  0
   -0.9000   -1.2740   -1.7730 H   0  0  0  0  0  0  0  0  0  0  0  0
    0.3040   -0.2500   -3.7310 H   0  0  0  0  0  0  0  0  0  0  0  0
    1.3810   -0.4350   -2.3570 H   0  0  0  0  0  0  0  0  0  0  0  0
    0.7080    1.1470   -2.7370 H   0  0  0  0  0  0  0  0  0  0  0  0
  1  2  1  0
  1  8  1  6
  1  7  1  0
  1  9  1  0
  2  3  1  0
  2 11  1  6
  2 10  1  0
  3  4  1  0
  3 13  1  6
  3 12  1  0
  4  5  1  0
  4 14  1  6
  4 15  1  0
  5  6  1  0
  5 16  1  6
  5 17  1  0
  6 18  1  6
  6 20  1  0
  6 19  1  0
M  END
$$$$
