ACONF/H_g+x-t+/struc.xyz
     RDKit          3D

 20 19  0  0  0  0  0  0  0  0999 V2000
   -1.8260    1.2350    0.0220 C   0  0  2  0  0  0  0  0  0  0  0  0
   -2.0340   -0.2560   -0.2140 C   0  0  2  0  0  0  0  0  0  0  0  0
   -0.8990   -1.1410    0.2980 C   0  0  2  0  0  0  0  0  0  0  0  0
    0.4680   -0.8420   -0.3320 C   0  0  2  0  0  0  0  0  0  0  0  0
    1.3490    0.0890    0.4950 C   0  0  2  0  0  0  0  0  0  0  0  0
    2.6680    0.4010   -0.1990 C   0  0  2  0  0  0  0  0  0  0  0  0
   -0.9610    1.6090   -0.5220 H   0  0  0  0  0  0  0  0  0  0  0  0
   -1.6710    1.4450    1.0810 H   0  0  0  0  0  0  0  0  0  0  0  0
   -2.6930    1.8060   -0.3080 H   0  0  0  0  0  0  0  0  0  0  0  0
   -2.1600   -0.4350   -1.2850 H   0  0  0  0  0  0  0  0  0  0  0  0
   -2.9660   -0.5670    0.2610 H   0  0  0  0  0  0  0  0  0  0  0  0
   -1.1700   -2.1810    0.1060 H   0  0  0  0  0  0  0  0  0  0  0  0
   -0.8230   -1.0420    1.3850 H   0  0  0  0  0  0  0  0  0  0  0  0
    0.3220   -0.4130   -1.3280 H   0  0  0  0  0  0  0  0  0  0  0  0
    1.0160   -1.7740   -0.4830 H   0  0  0  0  0  0  0  0  0  0  0  0
    1.5430   -0.3830    1.4610 H   0  0  0  0  0  0  0  0  0  0  0  0
    0.8170    1.0160    0.7100 H   0  0  0  0  0  0  0  0  0  0  0  0
    3.3020    1.0450    0.4080 H   0  0  0  0  0  0  0  0  0  0  0  0
    2.4950    0.9030   -1.1510 H   0  0  0  0  0  0  0  0  0  0  0  0
    3.2220   -0.5150   -0.4070 H   0  0  0  0  0  0  0  0  0  0  0  0
  1  7  1  6
  1  9  1  0
  1  2  1  0
  1  8  1  0
  2 10  1  6
  2 11  1  0
  2  3  1  0
  3  4  1  0
  3 12  1  1
  3 13  1  0
  4 14  1  6
  4 15  1  0
  4  5  1  0
  5  6  1  0
  5 17  1  1
  5 16  1  0
  6 19  1  6
  6 20  1  0
  6 18  1  0
M  END
$$$$
