20
ACONF/H_t+g+x-/struc.xyz
C          2.71200       -0.43500        0.12200
C          1.21300       -0.40600       -0.14800
C          0.63300        0.99300        0.02700
C         -0.84600        1.13800       -0.32800
C         -1.79100        0.25500        0.49800
C         -2.11800       -1.08300       -0.15900
H          2.92700       -0.09800        1.13600
H          3.24100        0.22500       -0.56500
H          3.12300       -1.43700        0.00800
H          0.71100       -1.10100        0.52700
H          1.01300       -0.75700       -1.16400
H          1.21300        1.68800       -0.58500
H          0.77800        1.30500        1.06600
H         -0.98800        0.91900       -1.39100
H         -1.12000        2.18500       -0.19400
H         -2.72700        0.78900        0.66700
H         -1.35500        0.08900        1.48600
H         -2.78200       -1.67900        0.46500
H         -1.22200       -1.67000       -0.35200
H         -2.61600       -0.92200       -1.11500
