20
ACONF/H_x+g-g-/struc.xyz
C          1.74000        1.15100       -0.09800
C          1.70700       -0.37100       -0.20600
C          0.59000       -1.04100        0.60400
C         -0.71000       -1.27200       -0.16700
C         -1.41500       -0.01900       -0.68300
C         -1.87200        0.91600        0.43000
H          1.86300        1.45500        0.94200
H          0.82600        1.61000       -0.46800
H          2.57300        1.56600       -0.66400
H          2.67100       -0.75400        0.13300
H          1.61600       -0.66700       -1.25400
H          0.39700       -0.45800        1.50800
H          0.93900       -2.01700        0.94800
H         -1.40600       -1.82000        0.47400
H         -0.49000       -1.92800       -1.01400
H         -2.28500       -0.32900       -1.26500
H         -0.76400        0.51400       -1.37800
H         -2.42100        1.76700        0.03100
H         -1.03100        1.30400        1.00200
H         -2.52900        0.39100        1.12400
