 energy: -61.780531235180 gnorm: 0.000027506755 xtb: 6.5.1 (9af7eec)
     RDKit          3D

 39 38  0  0  0  0  0  0  0  0999 V2000
   -4.4007    2.0730    4.5452 H   0  0  0  0  0  0  0  0  0  0  0  0
   -3.4175    1.6707    4.7824 C   0  0  1  0  0  0  0  0  0  0  0  0
   -3.2332    1.7967    5.8452 H   0  0  0  0  0  0  0  0  0  0  0  0
   -2.6689    2.2210    4.2174 H   0  0  0  0  0  0  0  0  0  0  0  0
   -3.3739    0.2025    4.4372 C   0  0  0  0  0  0  0  0  0  0  0  0
   -3.3172   -0.6860    5.2645 O   0  0  0  0  0  0  0  0  0  0  0  0
   -3.3770   -0.0642    3.1105 N   0  0  0  0  0  0  0  0  0  0  0  0
   -3.5368    0.6783    2.4476 H   0  0  0  0  0  0  0  0  0  0  0  0
   -3.4521   -1.4319    2.6239 C   0  0  1  0  0  0  0  0  0  0  0  0
   -4.4034   -1.8867    2.9333 H   0  0  0  0  0  0  0  0  0  0  0  0
   -3.3306   -1.4607    1.1059 C   0  0  1  0  0  0  0  0  0  0  0  0
   -2.3848   -1.0268    0.7872 H   0  0  0  0  0  0  0  0  0  0  0  0
   -3.3738   -2.4887    0.7574 H   0  0  0  0  0  0  0  0  0  0  0  0
   -4.1482   -0.9070    0.6483 H   0  0  0  0  0  0  0  0  0  0  0  0
   -2.3406   -2.2835    3.2549 C   0  0  1  0  0  0  0  0  0  0  0  0
   -2.5452   -3.4066    3.6685 O   0  0  0  0  0  0  0  0  0  0  0  0
   -1.1239   -1.7094    3.2245 N   0  0  0  0  0  0  0  0  0  0  0  0
   -1.0542   -0.7244    3.0226 H   0  0  0  0  0  0  0  0  0  0  0  0
    0.0446   -2.3446    3.7972 C   0  0  1  0  0  0  0  0  0  0  0  0
   -0.0387   -3.4200    3.6224 H   0  0  0  0  0  0  0  0  0  0  0  0
    0.9381   -1.9547    3.3082 H   0  0  0  0  0  0  0  0  0  0  0  0
    0.1449   -2.0767    5.3136 C   0  0  0  0  0  0  0  0  0  0  0  0
    1.0203   -1.3828    5.7862 O   0  0  0  0  0  0  0  0  0  0  0  0
   -0.8384   -2.6760    5.9959 N   0  0  0  0  0  0  0  0  0  0  0  0
   -1.5114   -3.2311    5.4821 H   0  0  0  0  0  0  0  0  0  0  0  0
   -1.0291   -2.5562    7.4324 C   0  0  1  0  0  0  0  0  0  0  0  0
   -0.1544   -2.9744    7.9460 H   0  0  0  0  0  0  0  0  0  0  0  0
   -1.2070   -1.0965    7.8577 C   0  0  1  0  0  0  0  0  0  0  0  0
   -2.0335   -0.6477    7.3125 H   0  0  0  0  0  0  0  0  0  0  0  0
   -1.4099   -1.0491    8.9242 H   0  0  0  0  0  0  0  0  0  0  0  0
   -0.2968   -0.5435    7.6421 H   0  0  0  0  0  0  0  0  0  0  0  0
   -2.2586   -3.3730    7.8451 C   0  0  0  0  0  0  0  0  0  0  0  0
   -2.2262   -4.1849    8.7474 O   0  0  0  0  0  0  0  0  0  0  0  0
   -3.3540   -3.0930    7.1196 N   0  0  0  0  0  0  0  0  0  0  0  0
   -3.3287   -2.3596    6.4246 H   0  0  0  0  0  0  0  0  0  0  0  0
   -4.6115   -3.7652    7.3259 C   0  0  1  0  0  0  0  0  0  0  0  0
   -4.9270   -4.2661    6.4088 H   0  0  0  0  0  0  0  0  0  0  0  0
   -4.4688   -4.5036    8.1135 H   0  0  0  0  0  0  0  0  0  0  0  0
   -5.3841   -3.0558    7.6296 H   0  0  0  0  0  0  0  0  0  0  0  0
  2  1  1  1
  2  3  1  0
  2  4  1  0
  2  5  1  0
  5  7  1  0
  5  6  1  0
  7  8  1  0
  7  9  1  0
  9 15  1  0
  9 11  1  0
  9 10  1  6
 11 12  1  1
 11 14  1  0
 11 13  1  0
 15 16  1  6
 15 17  1  0
 17 19  1  0
 17 18  1  0
 19 20  1  1
 19 21  1  0
 19 22  1  0
 22 24  1  0
 22 23  1  0
 24 25  1  0
 24 26  1  0
 26 32  1  0
 26 28  1  0
 26 27  1  1
 28 29  1  6
 28 31  1  0
 28 30  1  0
 32 33  1  0
 32 34  1  0
 34 36  1  0
 34 35  1  0
 36 39  1  1
 36 37  1  0
 36 38  1  0
M  END
$$$$
