 energy: -61.778927218380 gnorm: 0.000033311746 xtb: 6.5.1 (9af7eec)
     RDKit          3D

 39 38  0  0  0  0  0  0  0  0999 V2000
   -1.7002   -3.6980    2.4444 H   0  0  0  0  0  0  0  0  0  0  0  0
   -2.3307   -2.9192    2.0260 C   0  0  1  0  0  0  0  0  0  0  0  0
   -3.0065   -2.5548    2.7971 H   0  0  0  0  0  0  0  0  0  0  0  0
   -2.9201   -3.3304    1.2097 H   0  0  0  0  0  0  0  0  0  0  0  0
   -1.4616   -1.7875    1.5300 C   0  0  0  0  0  0  0  0  0  0  0  0
   -0.2500   -1.7615    1.6648 O   0  0  0  0  0  0  0  0  0  0  0  0
   -2.1383   -0.7969    0.9165 N   0  0  0  0  0  0  0  0  0  0  0  0
   -3.1458   -0.8087    0.9005 H   0  0  0  0  0  0  0  0  0  0  0  0
   -1.4879    0.3636    0.3279 C   0  0  1  0  0  0  0  0  0  0  0  0
   -0.5375    0.0188   -0.0976 H   0  0  0  0  0  0  0  0  0  0  0  0
   -2.3716    0.9714   -0.7483 C   0  0  1  0  0  0  0  0  0  0  0  0
   -3.2656    1.3957   -0.2971 H   0  0  0  0  0  0  0  0  0  0  0  0
   -1.8344    1.7730   -1.2466 H   0  0  0  0  0  0  0  0  0  0  0  0
   -2.6514    0.2208   -1.4836 H   0  0  0  0  0  0  0  0  0  0  0  0
   -1.1727    1.4013    1.4278 C   0  0  0  0  0  0  0  0  0  0  0  0
   -1.7697    2.4500    1.5427 O   0  0  0  0  0  0  0  0  0  0  0  0
   -0.1716    1.0042    2.2362 N   0  0  0  0  0  0  0  0  0  0  0  0
    0.2109    0.0701    2.1154 H   0  0  0  0  0  0  0  0  0  0  0  0
    0.3044    1.8106    3.3304 C   0  0  1  0  0  0  0  0  0  0  0  0
   -0.3541    2.6826    3.4080 H   0  0  0  0  0  0  0  0  0  0  0  0
    0.2625    1.2587    4.2739 H   0  0  0  0  0  0  0  0  0  0  0  0
    1.7354    2.3212    3.1414 C   0  0  0  0  0  0  0  0  0  0  0  0
    2.4017    2.7302    4.0697 O   0  0  0  0  0  0  0  0  0  0  0  0
    2.1697    2.2796    1.8725 N   0  0  0  0  0  0  0  0  0  0  0  0
    1.5644    1.9773    1.1179 H   0  0  0  0  0  0  0  0  0  0  0  0
    3.4611    2.7592    1.4490 C   0  0  1  0  0  0  0  0  0  0  0  0
    3.6832    3.6959    1.9757 H   0  0  0  0  0  0  0  0  0  0  0  0
    4.5539    1.7287    1.7610 C   0  0  1  0  0  0  0  0  0  0  0  0
    4.3375    0.7927    1.2514 H   0  0  0  0  0  0  0  0  0  0  0  0
    5.5306    2.0868    1.4459 H   0  0  0  0  0  0  0  0  0  0  0  0
    4.5718    1.5512    2.8331 H   0  0  0  0  0  0  0  0  0  0  0  0
    3.3718    2.9911   -0.0617 C   0  0  0  0  0  0  0  0  0  0  0  0
    2.4679    2.5246   -0.7263 O   0  0  0  0  0  0  0  0  0  0  0  0
    4.3796    3.7200   -0.5715 N   0  0  0  0  0  0  0  0  0  0  0  0
    5.0836    4.0915    0.0459 H   0  0  0  0  0  0  0  0  0  0  0  0
    4.4979    4.0149   -1.9793 C   0  0  1  0  0  0  0  0  0  0  0  0
    5.4258    3.6051   -2.3822 H   0  0  0  0  0  0  0  0  0  0  0  0
    3.6502    3.5527   -2.4817 H   0  0  0  0  0  0  0  0  0  0  0  0
    4.4769    5.0922   -2.1506 H   0  0  0  0  0  0  0  0  0  0  0  0
  2  1  1  1
  2  3  1  0
  2  4  1  0
  2  5  1  0
  5  7  1  0
  5  6  1  0
  7  8  1  0
  7  9  1  0
  9 15  1  0
  9 11  1  0
  9 10  1  6
 11 12  1  1
 11 14  1  0
 11 13  1  0
 15 16  1  0
 15 17  1  0
 17 19  1  0
 17 18  1  0
 19 20  1  1
 19 21  1  0
 19 22  1  0
 22 24  1  0
 22 23  1  0
 24 25  1  0
 24 26  1  0
 26 32  1  0
 26 28  1  0
 26 27  1  1
 28 29  1  6
 28 31  1  0
 28 30  1  0
 32 33  1  0
 32 34  1  0
 34 36  1  0
 34 35  1  0
 36 39  1  1
 36 37  1  0
 36 38  1  0
M  END
$$$$
