 energy: -61.780018942218 gnorm: 0.000033572049 xtb: 6.5.1 (9af7eec)
     RDKit          3D

 39 38  0  0  0  0  0  0  0  0999 V2000
   -1.1161    0.2859    0.4709 H   0  0  0  0  0  0  0  0  0  0  0  0
   -0.5789    0.2962    1.4174 C   0  0  1  0  0  0  0  0  0  0  0  0
    0.1510    1.1000    1.3974 H   0  0  0  0  0  0  0  0  0  0  0  0
   -0.0716   -0.6575    1.5411 H   0  0  0  0  0  0  0  0  0  0  0  0
   -1.5510    0.5367    2.5465 C   0  0  0  0  0  0  0  0  0  0  0  0
   -1.6055    1.5728    3.1829 O   0  0  0  0  0  0  0  0  0  0  0  0
   -2.3808   -0.4992    2.7977 N   0  0  0  0  0  0  0  0  0  0  0  0
   -2.2860   -1.3630    2.2879 H   0  0  0  0  0  0  0  0  0  0  0  0
   -3.4370   -0.4314    3.7974 C   0  0  1  0  0  0  0  0  0  0  0  0
   -3.8337    0.5909    3.7833 H   0  0  0  0  0  0  0  0  0  0  0  0
   -4.5258   -1.4432    3.4827 C   0  0  1  0  0  0  0  0  0  0  0  0
   -4.1345   -2.4532    3.5829 H   0  0  0  0  0  0  0  0  0  0  0  0
   -5.3451   -1.3293    4.1865 H   0  0  0  0  0  0  0  0  0  0  0  0
   -4.9031   -1.2955    2.4739 H   0  0  0  0  0  0  0  0  0  0  0  0
   -2.8181   -0.6946    5.1830 C   0  0  0  0  0  0  0  0  0  0  0  0
   -2.9275   -1.7692    5.7556 O   0  0  0  0  0  0  0  0  0  0  0  0
   -2.1184    0.3427    5.6540 N   0  0  0  0  0  0  0  0  0  0  0  0
   -1.9976    1.1589    5.0581 H   0  0  0  0  0  0  0  0  0  0  0  0
   -1.4208    0.3295    6.9195 C   0  0  1  0  0  0  0  0  0  0  0  0
   -1.8173    1.1244    7.5594 H   0  0  0  0  0  0  0  0  0  0  0  0
   -1.5977   -0.6363    7.3996 H   0  0  0  0  0  0  0  0  0  0  0  0
    0.0867    0.5862    6.7995 C   0  0  0  0  0  0  0  0  0  0  0  0
    0.5947    1.5473    7.3372 O   0  0  0  0  0  0  0  0  0  0  0  0
    0.8198   -0.2773    6.0686 N   0  0  0  0  0  0  0  0  0  0  0  0
    1.8171   -0.1072    6.1164 H   0  0  0  0  0  0  0  0  0  0  0  0
    0.4539   -1.5613    5.5043 C   0  0  1  0  0  0  0  0  0  0  0  0
   -0.5584   -1.5085    5.1060 H   0  0  0  0  0  0  0  0  0  0  0  0
    1.4339   -1.9043    4.3871 C   0  0  1  0  0  0  0  0  0  0  0  0
    2.4144   -2.0992    4.8163 H   0  0  0  0  0  0  0  0  0  0  0  0
    1.1061   -2.7993    3.8638 H   0  0  0  0  0  0  0  0  0  0  0  0
    1.5064   -1.0802    3.6811 H   0  0  0  0  0  0  0  0  0  0  0  0
    0.5394   -2.6419    6.6079 C   0  0  0  0  0  0  0  0  0  0  0  0
    1.6087   -2.9858    7.0690 O   0  0  0  0  0  0  0  0  0  0  0  0
   -0.6481   -3.1249    7.0030 N   0  0  0  0  0  0  0  0  0  0  0  0
   -1.5128   -2.7898    6.5874 H   0  0  0  0  0  0  0  0  0  0  0  0
   -0.7630   -4.1200    8.0429 C   0  0  1  0  0  0  0  0  0  0  0  0
   -1.2445   -5.0198    7.6573 H   0  0  0  0  0  0  0  0  0  0  0  0
    0.2413   -4.3630    8.3867 H   0  0  0  0  0  0  0  0  0  0  0  0
   -1.3494   -3.7332    8.8778 H   0  0  0  0  0  0  0  0  0  0  0  0
  2  1  1  6
  2  3  1  0
  2  4  1  0
  2  5  1  0
  5  7  1  0
  5  6  1  0
  7  8  1  0
  7  9  1  0
  9 15  1  0
  9 11  1  0
  9 10  1  1
 11 12  1  6
 11 14  1  0
 11 13  1  0
 15 16  1  0
 15 17  1  0
 17 19  1  0
 17 18  1  0
 19 20  1  1
 19 21  1  0
 19 22  1  0
 22 24  1  0
 22 23  1  0
 24 25  1  0
 24 26  1  0
 26 32  1  0
 26 28  1  0
 26 27  1  6
 28 29  1  1
 28 31  1  0
 28 30  1  0
 32 33  1  0
 32 34  1  0
 34 36  1  0
 34 35  1  0
 36 39  1  1
 36 37  1  0
 36 38  1  0
M  END
$$$$
