 energy: -61.778731231777 gnorm: 0.000029519559 xtb: 6.5.1 (9af7eec)
     RDKit          3D

 39 38  0  0  0  0  0  0  0  0999 V2000
    0.2194   -1.9106   -0.2515 H   0  0  0  0  0  0  0  0  0  0  0  0
    0.1481   -1.5325    0.7654 C   0  0  1  0  0  0  0  0  0  0  0  0
    0.8995   -0.7641    0.9220 H   0  0  0  0  0  0  0  0  0  0  0  0
    0.3361   -2.3524    1.4566 H   0  0  0  0  0  0  0  0  0  0  0  0
   -1.2225   -0.9581    1.0295 C   0  0  0  0  0  0  0  0  0  0  0  0
   -1.4098    0.1289    1.5407 O   0  0  0  0  0  0  0  0  0  0  0  0
   -2.2468   -1.7372    0.6087 N   0  0  0  0  0  0  0  0  0  0  0  0
   -2.0478   -2.6864    0.3322 H   0  0  0  0  0  0  0  0  0  0  0  0
   -3.6279   -1.4289    0.9536 C   0  0  1  0  0  0  0  0  0  0  0  0
   -4.2695   -1.9733    0.2497 H   0  0  0  0  0  0  0  0  0  0  0  0
   -3.9563   -1.8390    2.3864 C   0  0  1  0  0  0  0  0  0  0  0  0
   -3.3043   -1.3065    3.0741 H   0  0  0  0  0  0  0  0  0  0  0  0
   -4.9828   -1.5687    2.6135 H   0  0  0  0  0  0  0  0  0  0  0  0
   -3.8263   -2.9108    2.5190 H   0  0  0  0  0  0  0  0  0  0  0  0
   -3.9040    0.0720    0.7526 C   0  0  2  0  0  0  0  0  0  0  0  0
   -4.5073    0.7412    1.5653 O   0  0  0  0  0  0  0  0  0  0  0  0
   -3.5249    0.5388   -0.4536 N   0  0  0  0  0  0  0  0  0  0  0  0
   -2.8975   -0.0090   -1.0199 H   0  0  0  0  0  0  0  0  0  0  0  0
   -3.7140    1.9236   -0.8328 C   0  0  1  0  0  0  0  0  0  0  0  0
   -3.7067    1.9951   -1.9208 H   0  0  0  0  0  0  0  0  0  0  0  0
   -4.6846    2.2450   -0.4452 H   0  0  0  0  0  0  0  0  0  0  0  0
   -2.6205    2.8595   -0.2732 C   0  0  0  0  0  0  0  0  0  0  0  0
   -1.8218    3.4136   -0.9975 O   0  0  0  0  0  0  0  0  0  0  0  0
   -2.6757    2.9768    1.0597 N   0  0  0  0  0  0  0  0  0  0  0  0
   -3.3600    2.4289    1.5683 H   0  0  0  0  0  0  0  0  0  0  0  0
   -1.8333    3.8680    1.8350 C   0  0  1  0  0  0  0  0  0  0  0  0
   -2.1743    4.9038    1.6986 H   0  0  0  0  0  0  0  0  0  0  0  0
   -1.9229    3.4771    3.3064 C   0  0  1  0  0  0  0  0  0  0  0  0
   -1.6135    2.4421    3.4336 H   0  0  0  0  0  0  0  0  0  0  0  0
   -1.2742    4.1164    3.8992 H   0  0  0  0  0  0  0  0  0  0  0  0
   -2.9448    3.5849    3.6647 H   0  0  0  0  0  0  0  0  0  0  0  0
   -0.3601    3.8441    1.3932 C   0  0  1  0  0  0  0  0  0  0  0  0
    0.2934    4.8624    1.3139 O   0  0  0  0  0  0  0  0  0  0  0  0
    0.1347    2.6094    1.2121 N   0  0  0  0  0  0  0  0  0  0  0  0
   -0.4768    1.8074    1.3005 H   0  0  0  0  0  0  0  0  0  0  0  0
    1.4819    2.3867    0.7568 C   0  0  1  0  0  0  0  0  0  0  0  0
    1.4876    1.9280   -0.2349 H   0  0  0  0  0  0  0  0  0  0  0  0
    1.9745    3.3565    0.7024 H   0  0  0  0  0  0  0  0  0  0  0  0
    2.0226    1.7448    1.4568 H   0  0  0  0  0  0  0  0  0  0  0  0
  2  1  1  6
  2  3  1  0
  2  4  1  0
  2  5  1  0
  5  7  1  0
  5  6  1  0
  7  8  1  0
  7  9  1  0
  9 15  1  0
  9 11  1  0
  9 10  1  6
 11 12  1  1
 11 14  1  0
 11 13  1  0
 15 16  1  6
 15 17  1  0
 17 19  1  0
 17 18  1  0
 19 20  1  6
 19 21  1  0
 19 22  1  0
 22 24  1  0
 22 23  1  0
 24 25  1  0
 24 26  1  0
 26 32  1  0
 26 28  1  0
 26 27  1  1
 28 29  1  6
 28 31  1  0
 28 30  1  0
 32 33  1  1
 32 34  1  0
 34 36  1  0
 34 35  1  0
 36 39  1  1
 36 37  1  0
 36 38  1  0
M  END
$$$$
