 energy: -61.785137532841 gnorm: 0.000047012076 xtb: 6.5.1 (9af7eec)
     RDKit          3D

 39 38  0  0  0  0  0  0  0  0999 V2000
   -8.5605   -0.8551    2.5659 H   0  0  0  0  0  0  0  0  0  0  0  0
   -7.6174   -1.2617    2.2132 C   0  0  1  0  0  0  0  0  0  0  0  0
   -7.8230   -2.0506    1.4901 H   0  0  0  0  0  0  0  0  0  0  0  0
   -7.0544   -1.6770    3.0445 H   0  0  0  0  0  0  0  0  0  0  0  0
   -6.8398   -0.1913    1.4978 C   0  0  0  0  0  0  0  0  0  0  0  0
   -7.3385    0.8375    1.0724 O   0  0  0  0  0  0  0  0  0  0  0  0
   -5.5206   -0.4592    1.3558 N   0  0  0  0  0  0  0  0  0  0  0  0
   -5.1941   -1.3937    1.5491 H   0  0  0  0  0  0  0  0  0  0  0  0
   -4.6545    0.3606    0.5186 C   0  0  1  0  0  0  0  0  0  0  0  0
   -4.9556    1.4031    0.6646 H   0  0  0  0  0  0  0  0  0  0  0  0
   -3.1970    0.1457    0.8873 C   0  0  1  0  0  0  0  0  0  0  0  0
   -2.8999   -0.8708    0.6391 H   0  0  0  0  0  0  0  0  0  0  0  0
   -2.5705    0.8298    0.3220 H   0  0  0  0  0  0  0  0  0  0  0  0
   -3.0453    0.3195    1.9492 H   0  0  0  0  0  0  0  0  0  0  0  0
   -4.9540   -0.0684   -0.9224 C   0  0  1  0  0  0  0  0  0  0  0  0
   -4.2537   -0.8483   -1.5469 O   0  0  0  0  0  0  0  0  0  0  0  0
   -6.1056    0.4345   -1.4054 N   0  0  0  0  0  0  0  0  0  0  0  0
   -6.7236    0.8964   -0.7414 H   0  0  0  0  0  0  0  0  0  0  0  0
   -6.7017   -0.2330   -2.5447 C   0  0  1  0  0  0  0  0  0  0  0  0
   -7.7149    0.1427   -2.6849 H   0  0  0  0  0  0  0  0  0  0  0  0
   -6.1057   -0.0353   -3.4401 H   0  0  0  0  0  0  0  0  0  0  0  0
   -6.7420   -1.7392   -2.2386 C   0  0  0  0  0  0  0  0  0  0  0  0
   -7.0694   -2.1507   -1.1431 O   0  0  0  0  0  0  0  0  0  0  0  0
   -6.3646   -2.5358   -3.2523 N   0  0  0  0  0  0  0  0  0  0  0  0
   -6.0533   -2.1330   -4.1222 H   0  0  0  0  0  0  0  0  0  0  0  0
   -6.2694   -3.9745   -3.1328 C   0  0  1  0  0  0  0  0  0  0  0  0
   -6.7362   -4.2351   -2.1748 H   0  0  0  0  0  0  0  0  0  0  0  0
   -7.0045   -4.6628   -4.2772 C   0  0  1  0  0  0  0  0  0  0  0  0
   -6.6117   -4.3227   -5.2334 H   0  0  0  0  0  0  0  0  0  0  0  0
   -6.8423   -5.7342   -4.2060 H   0  0  0  0  0  0  0  0  0  0  0  0
   -8.0697   -4.4523   -4.2330 H   0  0  0  0  0  0  0  0  0  0  0  0
   -4.8070   -4.4688   -3.0689 C   0  0  0  0  0  0  0  0  0  0  0  0
   -4.5102   -5.5908   -3.4295 O   0  0  0  0  0  0  0  0  0  0  0  0
   -3.9292   -3.5817   -2.5801 N   0  0  0  0  0  0  0  0  0  0  0  0
   -4.2189   -2.6659   -2.2582 H   0  0  0  0  0  0  0  0  0  0  0  0
   -2.5327   -3.9028   -2.4133 C   0  0  1  0  0  0  0  0  0  0  0  0
   -2.2653   -3.9196   -1.3549 H   0  0  0  0  0  0  0  0  0  0  0  0
   -2.3601   -4.8879   -2.8443 H   0  0  0  0  0  0  0  0  0  0  0  0
   -1.9144   -3.1626   -2.9219 H   0  0  0  0  0  0  0  0  0  0  0  0
  2  1  1  1
  2  3  1  0
  2  4  1  0
  2  5  1  0
  5  7  1  0
  5  6  1  0
  7  8  1  0
  7  9  1  0
  9 15  1  0
  9 11  1  0
  9 10  1  6
 11 12  1  1
 11 14  1  0
 11 13  1  0
 15 16  1  1
 15 17  1  0
 17 19  1  0
 17 18  1  0
 19 20  1  6
 19 21  1  0
 19 22  1  0
 22 24  1  0
 22 23  1  0
 24 25  1  0
 24 26  1  0
 26 32  1  0
 26 28  1  0
 26 27  1  1
 28 29  1  6
 28 31  1  0
 28 30  1  0
 32 33  1  0
 32 34  1  0
 34 36  1  0
 34 35  1  0
 36 39  1  6
 36 37  1  0
 36 38  1  0
M  END
$$$$
