 energy: -61.784131877322 gnorm: 0.000045417571 xtb: 6.5.1 (9af7eec)
     RDKit          3D

 39 38  0  0  0  0  0  0  0  0999 V2000
   -2.8717   -0.5267   -2.1815 H   0  0  0  0  0  0  0  0  0  0  0  0
   -3.8943   -0.3374   -1.8597 C   0  0  1  0  0  0  0  0  0  0  0  0
   -4.4380   -1.2785   -1.8404 H   0  0  0  0  0  0  0  0  0  0  0  0
   -4.3618    0.3439   -2.5646 H   0  0  0  0  0  0  0  0  0  0  0  0
   -3.8636    0.2950   -0.4885 C   0  0  0  0  0  0  0  0  0  0  0  0
   -4.1002    1.4742   -0.2907 O   0  0  0  0  0  0  0  0  0  0  0  0
   -3.5843   -0.5621    0.5153 N   0  0  0  0  0  0  0  0  0  0  0  0
   -3.2028   -1.4680    0.2920 H   0  0  0  0  0  0  0  0  0  0  0  0
   -3.3337   -0.0546    1.8540 C   0  0  1  0  0  0  0  0  0  0  0  0
   -4.2425    0.4520    2.1986 H   0  0  0  0  0  0  0  0  0  0  0  0
   -2.9541   -1.1921    2.7893 C   0  0  1  0  0  0  0  0  0  0  0  0
   -2.0154   -1.6378    2.4658 H   0  0  0  0  0  0  0  0  0  0  0  0
   -2.8255   -0.8115    3.7988 H   0  0  0  0  0  0  0  0  0  0  0  0
   -3.7307   -1.9542    2.7980 H   0  0  0  0  0  0  0  0  0  0  0  0
   -2.1840    0.9666    1.7513 C   0  0  0  0  0  0  0  0  0  0  0  0
   -1.1890    0.7329    1.0946 O   0  0  0  0  0  0  0  0  0  0  0  0
   -2.3869    2.0979    2.4456 N   0  0  0  0  0  0  0  0  0  0  0  0
   -3.3087    2.2780    2.8327 H   0  0  0  0  0  0  0  0  0  0  0  0
   -1.5729    3.2778    2.2403 C   0  0  1  0  0  0  0  0  0  0  0  0
   -1.0237    3.5402    3.1492 H   0  0  0  0  0  0  0  0  0  0  0  0
   -0.8607    3.0642    1.4380 H   0  0  0  0  0  0  0  0  0  0  0  0
   -2.5025    4.4357    1.8775 C   0  0  0  0  0  0  0  0  0  0  0  0
   -2.4483    5.5206    2.4183 O   0  0  0  0  0  0  0  0  0  0  0  0
   -3.4064    4.1159    0.9232 N   0  0  0  0  0  0  0  0  0  0  0  0
   -3.4413    3.1604    0.5785 H   0  0  0  0  0  0  0  0  0  0  0  0
   -4.6887    4.7769    0.9066 C   0  0  1  0  0  0  0  0  0  0  0  0
   -4.5199    5.8439    1.0941 H   0  0  0  0  0  0  0  0  0  0  0  0
   -5.3743    4.5433   -0.4346 C   0  0  1  0  0  0  0  0  0  0  0  0
   -5.4306    3.4738   -0.6229 H   0  0  0  0  0  0  0  0  0  0  0  0
   -6.3770    4.9627   -0.4460 H   0  0  0  0  0  0  0  0  0  0  0  0
   -4.7911    5.0032   -1.2281 H   0  0  0  0  0  0  0  0  0  0  0  0
   -5.5201    4.2012    2.0696 C   0  0  0  0  0  0  0  0  0  0  0  0
   -5.1534    3.2357    2.7147 O   0  0  0  0  0  0  0  0  0  0  0  0
   -6.6692    4.8553    2.3066 N   0  0  0  0  0  0  0  0  0  0  0  0
   -6.8852    5.6799    1.7699 H   0  0  0  0  0  0  0  0  0  0  0  0
   -7.5820    4.4887    3.3624 C   0  0  1  0  0  0  0  0  0  0  0  0
   -8.5699    4.2668    2.9553 H   0  0  0  0  0  0  0  0  0  0  0  0
   -7.1818    3.6001    3.8471 H   0  0  0  0  0  0  0  0  0  0  0  0
   -7.6673    5.2918    4.0964 H   0  0  0  0  0  0  0  0  0  0  0  0
  2  1  1  6
  2  3  1  0
  2  4  1  0
  2  5  1  0
  5  7  1  0
  5  6  1  0
  7  8  1  0
  7  9  1  0
  9 15  1  0
  9 11  1  0
  9 10  1  1
 11 12  1  6
 11 14  1  0
 11 13  1  0
 15 16  1  0
 15 17  1  0
 17 19  1  0
 17 18  1  0
 19 20  1  1
 19 21  1  0
 19 22  1  0
 22 24  1  0
 22 23  1  0
 24 25  1  0
 24 26  1  0
 26 32  1  0
 26 28  1  0
 26 27  1  1
 28 29  1  6
 28 31  1  0
 28 30  1  0
 32 33  1  0
 32 34  1  0
 34 36  1  0
 34 35  1  0
 36 39  1  1
 36 37  1  0
 36 38  1  0
M  END
$$$$
