 energy: -61.785420949977 gnorm: 0.000045532457 xtb: 6.5.1 (9af7eec)
     RDKit          3D

 39 38  0  0  0  0  0  0  0  0999 V2000
   -1.3154    1.4677    1.2542 H   0  0  0  0  0  0  0  0  0  0  0  0
   -1.1735    0.4148    1.0206 C   0  0  1  0  0  0  0  0  0  0  0  0
   -0.1150    0.1766    1.0692 H   0  0  0  0  0  0  0  0  0  0  0  0
   -1.5362    0.2273    0.0122 H   0  0  0  0  0  0  0  0  0  0  0  0
   -1.9216   -0.4454    2.0132 C   0  0  0  0  0  0  0  0  0  0  0  0
   -1.3642   -1.2694    2.7187 O   0  0  0  0  0  0  0  0  0  0  0  0
   -3.2473   -0.2011    2.0488 N   0  0  0  0  0  0  0  0  0  0  0  0
   -3.5965    0.5182    1.4364 H   0  0  0  0  0  0  0  0  0  0  0  0
   -4.2582   -0.9485    2.7907 C   0  0  1  0  0  0  0  0  0  0  0  0
   -5.2313   -0.5592    2.4776 H   0  0  0  0  0  0  0  0  0  0  0  0
   -4.1966   -2.4481    2.4845 C   0  0  1  0  0  0  0  0  0  0  0  0
   -3.2164   -2.8462    2.7321 H   0  0  0  0  0  0  0  0  0  0  0  0
   -4.9503   -2.9785    3.0620 H   0  0  0  0  0  0  0  0  0  0  0  0
   -4.3841   -2.6180    1.4265 H   0  0  0  0  0  0  0  0  0  0  0  0
   -4.1992   -0.7518    4.3114 C   0  0  0  0  0  0  0  0  0  0  0  0
   -5.2014   -0.4361    4.9364 O   0  0  0  0  0  0  0  0  0  0  0  0
   -3.0168   -1.0003    4.8818 N   0  0  0  0  0  0  0  0  0  0  0  0
   -2.2441   -1.3085    4.2907 H   0  0  0  0  0  0  0  0  0  0  0  0
   -2.8433   -1.0005    6.3217 C   0  0  1  0  0  0  0  0  0  0  0  0
   -1.7866   -0.8748    6.5539 H   0  0  0  0  0  0  0  0  0  0  0  0
   -3.4296   -0.1840    6.7523 H   0  0  0  0  0  0  0  0  0  0  0  0
   -3.3373   -2.3456    6.8665 C   0  0  0  0  0  0  0  0  0  0  0  0
   -2.5834   -3.2172    7.2645 O   0  0  0  0  0  0  0  0  0  0  0  0
   -4.6708   -2.4730    6.8038 N   0  0  0  0  0  0  0  0  0  0  0  0
   -5.2052   -1.7362    6.3485 H   0  0  0  0  0  0  0  0  0  0  0  0
   -5.3350   -3.7587    6.9530 C   0  0  1  0  0  0  0  0  0  0  0  0
   -4.8710   -4.2830    7.7955 H   0  0  0  0  0  0  0  0  0  0  0  0
   -6.8214   -3.5482    7.1788 C   0  0  1  0  0  0  0  0  0  0  0  0
   -7.2626   -3.1060    6.2886 H   0  0  0  0  0  0  0  0  0  0  0  0
   -7.3063   -4.5026    7.3635 H   0  0  0  0  0  0  0  0  0  0  0  0
   -6.9867   -2.8922    8.0295 H   0  0  0  0  0  0  0  0  0  0  0  0
   -5.0689   -4.5375    5.6475 C   0  0  0  0  0  0  0  0  0  0  0  0
   -5.8441   -4.5368    4.7115 O   0  0  0  0  0  0  0  0  0  0  0  0
   -3.8780   -5.1599    5.6408 N   0  0  0  0  0  0  0  0  0  0  0  0
   -3.2263   -4.9646    6.3919 H   0  0  0  0  0  0  0  0  0  0  0  0
   -3.3629   -5.8275    4.4693 C   0  0  1  0  0  0  0  0  0  0  0  0
   -3.0433   -6.8383    4.7254 H   0  0  0  0  0  0  0  0  0  0  0  0
   -4.1626   -5.8741    3.7317 H   0  0  0  0  0  0  0  0  0  0  0  0
   -2.5148   -5.2817    4.0508 H   0  0  0  0  0  0  0  0  0  0  0  0
  2  1  1  1
  2  3  1  0
  2  4  1  0
  2  5  1  0
  5  7  1  0
  5  6  1  0
  7  8  1  0
  7  9  1  0
  9 15  1  0
  9 11  1  0
  9 10  1  6
 11 12  1  1
 11 14  1  0
 11 13  1  0
 15 16  1  0
 15 17  1  0
 17 19  1  0
 17 18  1  0
 19 20  1  6
 19 21  1  0
 19 22  1  0
 22 24  1  0
 22 23  1  0
 24 25  1  0
 24 26  1  0
 26 32  1  0
 26 28  1  0
 26 27  1  1
 28 29  1  6
 28 31  1  0
 28 30  1  0
 32 33  1  0
 32 34  1  0
 34 36  1  0
 34 35  1  0
 36 39  1  6
 36 37  1  0
 36 38  1  0
M  END
$$$$
