 energy: -91.993162452486 gnorm: 0.000039585041 xtb: 6.5.1 (9af7eec)
     RDKit          3D

 56 59  0  0  0  0  0  0  0  0999 V2000
   10.0015   -4.0191    1.5342 C   0  0  1  0  0  0  0  0  0  0  0  0
    9.4059   -3.4759    0.3279 N   0  0  0  0  0  0  0  0  0  0  0  0
    9.7931   -4.2578   -0.8317 C   0  0  1  0  0  0  0  0  0  0  0  0
    7.9578   -3.3550    0.4499 C   0  0  1  0  0  0  0  0  0  0  0  0
    7.3565   -2.3318   -0.5179 C   0  0  1  0  0  0  0  0  0  0  0  0
    7.8625   -0.9189   -0.2414 C   0  0  1  0  0  0  0  0  0  0  0  0
    9.2613   -0.8040   -0.5956 N   0  0  0  0  0  0  0  0  0  0  0  0
   10.0288    0.5484   -0.0137 S   0  0  1  0  0  6  0  0  0  0  0  0
   11.3900    0.4801   -0.4567 O   0  0  0  0  0  0  0  0  0  0  0  0
    9.2381    1.6930   -0.3608 O   0  0  0  0  0  0  0  0  0  0  0  0
    9.9812    0.3203    1.7626 C   0  0  0  0  0  0  0  0  0  0  0  0
   10.7964   -0.6441    2.3236 C   0  0  0  0  0  0  0  0  0  0  0  0
   10.7191   -0.9138    3.6759 C   0  0  0  0  0  0  0  0  0  0  0  0
    9.8135   -0.2111    4.4744 C   0  0  0  0  0  0  0  0  0  0  0  0
    9.0118    0.7782    3.8955 C   0  0  0  0  0  0  0  0  0  0  0  0
    9.0920    1.0363    2.5407 C   0  0  0  0  0  0  0  0  0  0  0  0
    9.6869   -0.4368    5.8334 N   0  0  0  0  0  0  0  0  0  0  0  0
   10.1745   -1.4430    6.6106 C   0  0  0  0  0  0  0  0  0  0  0  0
    9.9118   -1.2940    7.9164 N   0  0  0  0  0  0  0  0  0  0  0  0
   10.3633   -2.2386    8.7196 C   0  0  0  0  0  0  0  0  0  0  0  0
   11.0623   -3.3455    8.2649 C   0  0  0  0  0  0  0  0  0  0  0  0
   11.2600   -3.4226    6.8837 C   0  0  0  0  0  0  0  0  0  0  0  0
   10.8180   -2.4650    6.0644 N   0  0  0  0  0  0  0  0  0  0  0  0
   11.9267   -4.5240    6.2317 C   0  0  0  0  0  0  0  0  0  0  0  0
   12.0742   -4.7639    4.8661 C   0  0  0  0  0  0  0  0  0  0  0  0
   12.7394   -5.8950    4.6279 N   0  0  0  0  0  0  0  0  0  0  0  0
   13.0340   -6.3990    5.8172 C   0  0  0  0  0  0  0  0  0  0  0  0
   12.5427   -5.5788    6.8368 N   0  0  0  0  0  0  0  0  0  0  0  0
   12.6845   -5.8256    8.1266 N   0  0  0  0  0  0  0  0  0  0  0  0
   13.3279   -6.9095    8.4518 C   0  0  0  0  0  0  0  0  0  0  0  0
   13.8711   -7.8176    7.5213 C   0  0  0  0  0  0  0  0  0  0  0  0
   13.7219   -7.5594    6.1830 C   0  0  0  0  0  0  0  0  0  0  0  0
   11.0833   -4.0464    1.4115 H   0  0  0  0  0  0  0  0  0  0  0  0
    9.7604   -3.3740    2.3786 H   0  0  0  0  0  0  0  0  0  0  0  0
    9.6536   -5.0390    1.7563 H   0  0  0  0  0  0  0  0  0  0  0  0
   10.8793   -4.2687   -0.9056 H   0  0  0  0  0  0  0  0  0  0  0  0
    9.4343   -5.2968   -0.7724 H   0  0  0  0  0  0  0  0  0  0  0  0
    9.3944   -3.8002   -1.7338 H   0  0  0  0  0  0  0  0  0  0  0  0
    7.4654   -4.3317    0.2984 H   0  0  0  0  0  0  0  0  0  0  0  0
    7.7376   -3.0273    1.4699 H   0  0  0  0  0  0  0  0  0  0  0  0
    7.5894   -2.5945   -1.5490 H   0  0  0  0  0  0  0  0  0  0  0  0
    6.2717   -2.3486   -0.4005 H   0  0  0  0  0  0  0  0  0  0  0  0
    7.3171   -0.1841   -0.8389 H   0  0  0  0  0  0  0  0  0  0  0  0
    7.7028   -0.6769    0.8212 H   0  0  0  0  0  0  0  0  0  0  0  0
    9.7633   -1.6510   -0.3349 H   0  0  0  0  0  0  0  0  0  0  0  0
   11.4961   -1.1645    1.6892 H   0  0  0  0  0  0  0  0  0  0  0  0
   11.3457   -1.6604    4.1330 H   0  0  0  0  0  0  0  0  0  0  0  0
    8.3244    1.3367    4.5143 H   0  0  0  0  0  0  0  0  0  0  0  0
    8.4822    1.7914    2.0699 H   0  0  0  0  0  0  0  0  0  0  0  0
    9.1378    0.2325    6.3570 H   0  0  0  0  0  0  0  0  0  0  0  0
   10.1487   -2.0987    9.7714 H   0  0  0  0  0  0  0  0  0  0  0  0
   11.4274   -4.1081    8.9289 H   0  0  0  0  0  0  0  0  0  0  0  0
   11.7088   -4.1541    4.0647 H   0  0  0  0  0  0  0  0  0  0  0  0
   13.4224   -7.0750    9.5144 H   0  0  0  0  0  0  0  0  0  0  0  0
   14.3917   -8.6939    7.8703 H   0  0  0  0  0  0  0  0  0  0  0  0
   14.1092   -8.2048    5.4120 H   0  0  0  0  0  0  0  0  0  0  0  0
  1  2  1  0
  2  3  1  0
  2  4  1  0
  4  5  1  0
  5  6  1  0
  6  7  1  0
  8  7  1  6
  8  9  2  0
  8 10  2  0
  8 11  1  0
 11 12  2  0
 12 13  1  0
 13 14  2  0
 14 15  1  0
 15 16  2  0
 14 17  1  0
 17 18  1  0
 18 19  2  0
 19 20  1  0
 20 21  2  0
 21 22  1  0
 22 23  2  0
 22 24  1  0
 24 25  2  0
 25 26  1  0
 26 27  2  0
 27 28  1  0
 28 29  1  0
 29 30  2  0
 30 31  1  0
 31 32  2  0
 16 11  1  0
 23 18  1  0
 28 24  1  0
 32 27  1  0
  1 33  1  6
  1 34  1  0
  1 35  1  0
  3 36  1  6
  3 37  1  0
  3 38  1  0
  4 39  1  6
  4 40  1  0
  5 41  1  6
  5 42  1  0
  6 43  1  6
  6 44  1  0
  7 45  1  0
 12 46  1  0
 13 47  1  0
 15 48  1  0
 16 49  1  0
 17 50  1  0
 20 51  1  0
 21 52  1  0
 25 53  1  0
 30 54  1  0
 31 55  1  0
 32 56  1  0
M  END
$$$$
