 energy: -91.991172325444 gnorm: 0.000032832841 xtb: 6.5.1 (9af7eec)
     RDKit          3D

 56 59  0  0  0  0  0  0  0  0999 V2000
    6.8900    0.4049    5.1875 C   0  0  1  0  0  0  0  0  0  0  0  0
    7.5300    1.4683    5.9362 N   0  0  0  0  0  0  0  0  0  0  0  0
    8.5710    0.9403    6.7940 C   0  0  1  0  0  0  0  0  0  0  0  0
    8.0238    2.5058    5.0461 C   0  0  1  0  0  0  0  0  0  0  0  0
    8.2773    3.8326    5.7597 C   0  0  1  0  0  0  0  0  0  0  0  0
    8.5948    4.9468    4.7572 C   0  0  1  0  0  0  0  0  0  0  0  0
    7.5061    5.1789    3.8363 N   0  0  0  0  0  0  0  0  0  0  0  0
    7.7969    5.2502    2.1953 S   0  0  1  0  0  6  0  0  0  0  0  0
    6.7992    6.1199    1.6427 O   0  0  0  0  0  0  0  0  0  0  0  0
    9.1850    5.5231    1.9525 O   0  0  0  0  0  0  0  0  0  0  0  0
    7.4456    3.5640    1.7418 C   0  0  0  0  0  0  0  0  0  0  0  0
    8.4722    2.6402    1.7026 C   0  0  0  0  0  0  0  0  0  0  0  0
    8.1861    1.3007    1.5254 C   0  0  0  0  0  0  0  0  0  0  0  0
    6.8606    0.8850    1.3855 C   0  0  0  0  0  0  0  0  0  0  0  0
    5.8395    1.8401    1.3616 C   0  0  0  0  0  0  0  0  0  0  0  0
    6.1327    3.1754    1.5549 C   0  0  0  0  0  0  0  0  0  0  0  0
    6.5221   -0.4505    1.2446 N   0  0  0  0  0  0  0  0  0  0  0  0
    7.1887   -1.5442    1.7091 C   0  0  0  0  0  0  0  0  0  0  0  0
    6.5939   -2.7131    1.4444 N   0  0  0  0  0  0  0  0  0  0  0  0
    7.2003   -3.7960    1.8962 C   0  0  0  0  0  0  0  0  0  0  0  0
    8.3761   -3.7547    2.6277 C   0  0  0  0  0  0  0  0  0  0  0  0
    8.9056   -2.4836    2.8677 C   0  0  0  0  0  0  0  0  0  0  0  0
    8.3130   -1.3856    2.3933 N   0  0  0  0  0  0  0  0  0  0  0  0
   10.0938   -2.2377    3.6472 C   0  0  0  0  0  0  0  0  0  0  0  0
   10.6754   -1.0123    3.9713 C   0  0  0  0  0  0  0  0  0  0  0  0
   11.7572   -1.1619    4.7369 N   0  0  0  0  0  0  0  0  0  0  0  0
   11.8956   -2.4670    4.9170 C   0  0  0  0  0  0  0  0  0  0  0  0
   10.8822   -3.1674    4.2566 N   0  0  0  0  0  0  0  0  0  0  0  0
   10.7621   -4.4825    4.2544 N   0  0  0  0  0  0  0  0  0  0  0  0
   11.6580   -5.1565    4.9164 C   0  0  0  0  0  0  0  0  0  0  0  0
   12.7274   -4.5707    5.6225 C   0  0  0  0  0  0  0  0  0  0  0  0
   12.8486   -3.2051    5.6244 C   0  0  0  0  0  0  0  0  0  0  0  0
    6.5079   -0.3389    5.8860 H   0  0  0  0  0  0  0  0  0  0  0  0
    6.0514    0.8169    4.6271 H   0  0  0  0  0  0  0  0  0  0  0  0
    7.5707   -0.0926    4.4795 H   0  0  0  0  0  0  0  0  0  0  0  0
    8.1368    0.1950    7.4591 H   0  0  0  0  0  0  0  0  0  0  0  0
    9.3910    0.4708    6.2281 H   0  0  0  0  0  0  0  0  0  0  0  0
    8.9818    1.7419    7.4033 H   0  0  0  0  0  0  0  0  0  0  0  0
    8.9447    2.1868    4.5263 H   0  0  0  0  0  0  0  0  0  0  0  0
    7.2572    2.6820    4.2893 H   0  0  0  0  0  0  0  0  0  0  0  0
    7.3881    4.0948    6.3340 H   0  0  0  0  0  0  0  0  0  0  0  0
    9.1187    3.7484    6.4475 H   0  0  0  0  0  0  0  0  0  0  0  0
    8.8525    5.8647    5.2982 H   0  0  0  0  0  0  0  0  0  0  0  0
    9.4537    4.6671    4.1436 H   0  0  0  0  0  0  0  0  0  0  0  0
    6.7949    5.8226    4.1359 H   0  0  0  0  0  0  0  0  0  0  0  0
    9.4869    2.9890    1.8106 H   0  0  0  0  0  0  0  0  0  0  0  0
    8.9714    0.5648    1.5080 H   0  0  0  0  0  0  0  0  0  0  0  0
    4.8171    1.5236    1.2142 H   0  0  0  0  0  0  0  0  0  0  0  0
    5.3616    3.9287    1.5656 H   0  0  0  0  0  0  0  0  0  0  0  0
    5.5997   -0.6626    0.8891 H   0  0  0  0  0  0  0  0  0  0  0  0
    6.7118   -4.7340    1.6652 H   0  0  0  0  0  0  0  0  0  0  0  0
    8.8554   -4.6425    2.9994 H   0  0  0  0  0  0  0  0  0  0  0  0
   10.3358   -0.0429    3.6648 H   0  0  0  0  0  0  0  0  0  0  0  0
   11.5263   -6.2275    4.8895 H   0  0  0  0  0  0  0  0  0  0  0  0
   13.4296   -5.1979    6.1464 H   0  0  0  0  0  0  0  0  0  0  0  0
   13.6384   -2.6844    6.1403 H   0  0  0  0  0  0  0  0  0  0  0  0
  1  2  1  0
  2  3  1  0
  2  4  1  0
  4  5  1  0
  5  6  1  0
  6  7  1  0
  8  7  1  1
  8  9  2  0
  8 10  2  0
  8 11  1  0
 11 12  2  0
 12 13  1  0
 13 14  2  0
 14 15  1  0
 15 16  2  0
 14 17  1  0
 17 18  1  0
 18 19  2  0
 19 20  1  0
 20 21  2  0
 21 22  1  0
 22 23  2  0
 22 24  1  0
 24 25  2  0
 25 26  1  0
 26 27  2  0
 27 28  1  0
 28 29  1  0
 29 30  2  0
 30 31  1  0
 31 32  2  0
 16 11  1  0
 23 18  1  0
 28 24  1  0
 32 27  1  0
  1 33  1  1
  1 34  1  0
  1 35  1  0
  3 36  1  1
  3 37  1  0
  3 38  1  0
  4 39  1  6
  4 40  1  0
  5 41  1  1
  5 42  1  0
  6 43  1  1
  6 44  1  0
  7 45  1  0
 12 46  1  0
 13 47  1  0
 15 48  1  0
 16 49  1  0
 17 50  1  0
 20 51  1  0
 21 52  1  0
 25 53  1  0
 30 54  1  0
 31 55  1  0
 32 56  1  0
M  END
$$$$
