 energy: -91.986092723144 gnorm: 0.000046365020 xtb: 6.5.1 (9af7eec)
     RDKit          3D

 56 59  0  0  0  0  0  0  0  0999 V2000
    4.2787   -2.4761   -2.2255 C   0  0  1  0  0  0  0  0  0  0  0  0
    5.0671   -1.5868   -1.3989 N   0  0  0  0  0  0  0  0  0  0  0  0
    6.3295   -1.2761   -2.0363 C   0  0  1  0  0  0  0  0  0  0  0  0
    4.3248   -0.3920   -1.0349 C   0  0  1  0  0  0  0  0  0  0  0  0
    4.9418    0.3438    0.1590 C   0  0  1  0  0  0  0  0  0  0  0  0
    5.2861   -0.5997    1.3110 C   0  0  1  0  0  0  0  0  0  0  0  0
    4.1087   -1.2908    1.7962 N   0  0  0  0  0  0  0  0  0  0  0  0
    4.3061   -2.0129    3.2971 S   0  0  1  0  0  6  0  0  0  0  0  0
    3.1898   -2.8979    3.4649 O   0  0  0  0  0  0  0  0  0  0  0  0
    5.6325   -2.5468    3.4473 O   0  0  0  0  0  0  0  0  0  0  0  0
    4.1217   -0.5909    4.3531 C   0  0  0  0  0  0  0  0  0  0  0  0
    2.8778    0.0048    4.4469 C   0  0  0  0  0  0  0  0  0  0  0  0
    2.7197    1.1236    5.2377 C   0  0  0  0  0  0  0  0  0  0  0  0
    3.8093    1.6558    5.9389 C   0  0  0  0  0  0  0  0  0  0  0  0
    5.0588    1.0415    5.8328 C   0  0  0  0  0  0  0  0  0  0  0  0
    5.2064   -0.0810    5.0396 C   0  0  0  0  0  0  0  0  0  0  0  0
    3.5848    2.7775    6.7137 N   0  0  0  0  0  0  0  0  0  0  0  0
    4.4244    3.5096    7.4981 C   0  0  0  0  0  0  0  0  0  0  0  0
    5.7158    3.1995    7.5952 N   0  0  0  0  0  0  0  0  0  0  0  0
    6.4484    3.9708    8.3826 C   0  0  0  0  0  0  0  0  0  0  0  0
    5.9343    5.0479    9.0791 C   0  0  0  0  0  0  0  0  0  0  0  0
    4.5659    5.2955    8.9088 C   0  0  0  0  0  0  0  0  0  0  0  0
    3.8209    4.5243    8.1186 N   0  0  0  0  0  0  0  0  0  0  0  0
    3.8674    6.3780    9.5586 C   0  0  0  0  0  0  0  0  0  0  0  0
    2.5183    6.7182    9.4666 C   0  0  0  0  0  0  0  0  0  0  0  0
    2.2211    7.7843   10.2100 N   0  0  0  0  0  0  0  0  0  0  0  0
    3.3555    8.1489   10.7891 C   0  0  0  0  0  0  0  0  0  0  0  0
    4.3997    7.3006   10.4093 N   0  0  0  0  0  0  0  0  0  0  0  0
    5.6467    7.4198   10.8279 N   0  0  0  0  0  0  0  0  0  0  0  0
    5.9023    8.3974   11.6488 C   0  0  0  0  0  0  0  0  0  0  0  0
    4.9402    9.3188   12.1073 C   0  0  0  0  0  0  0  0  0  0  0  0
    3.6464    9.1935   11.6710 C   0  0  0  0  0  0  0  0  0  0  0  0
    4.8533   -3.3808   -2.4189 H   0  0  0  0  0  0  0  0  0  0  0  0
    3.3676   -2.7534   -1.6968 H   0  0  0  0  0  0  0  0  0  0  0  0
    3.9998   -2.0268   -3.1924 H   0  0  0  0  0  0  0  0  0  0  0  0
    6.8594   -2.2044   -2.2441 H   0  0  0  0  0  0  0  0  0  0  0  0
    6.1995   -0.7270   -2.9834 H   0  0  0  0  0  0  0  0  0  0  0  0
    6.9413   -0.6757   -1.3674 H   0  0  0  0  0  0  0  0  0  0  0  0
    4.2412    0.3103   -1.8854 H   0  0  0  0  0  0  0  0  0  0  0  0
    3.3130   -0.7003   -0.7620 H   0  0  0  0  0  0  0  0  0  0  0  0
    5.8519    0.8643   -0.1415 H   0  0  0  0  0  0  0  0  0  0  0  0
    4.2257    1.0896    0.5064 H   0  0  0  0  0  0  0  0  0  0  0  0
    6.0565   -1.3107    0.9939 H   0  0  0  0  0  0  0  0  0  0  0  0
    5.6741   -0.0242    2.1553 H   0  0  0  0  0  0  0  0  0  0  0  0
    3.7668   -1.9690    1.1311 H   0  0  0  0  0  0  0  0  0  0  0  0
    2.0531   -0.4268    3.9038 H   0  0  0  0  0  0  0  0  0  0  0  0
    1.7513    1.5955    5.3227 H   0  0  0  0  0  0  0  0  0  0  0  0
    5.8912    1.4543    6.3771 H   0  0  0  0  0  0  0  0  0  0  0  0
    6.1576   -0.5815    4.9479 H   0  0  0  0  0  0  0  0  0  0  0  0
    2.6355    3.1280    6.7331 H   0  0  0  0  0  0  0  0  0  0  0  0
    7.4946    3.7007    8.4481 H   0  0  0  0  0  0  0  0  0  0  0  0
    6.5413    5.6655    9.7162 H   0  0  0  0  0  0  0  0  0  0  0  0
    1.7726    6.2158    8.8842 H   0  0  0  0  0  0  0  0  0  0  0  0
    6.9320    8.4599   11.9672 H   0  0  0  0  0  0  0  0  0  0  0  0
    5.2307   10.1019   12.7878 H   0  0  0  0  0  0  0  0  0  0  0  0
    2.8549    9.8581   11.9760 H   0  0  0  0  0  0  0  0  0  0  0  0
  1  2  1  0
  2  3  1  0
  2  4  1  0
  4  5  1  0
  5  6  1  0
  6  7  1  0
  8  7  1  6
  8  9  2  0
  8 10  2  0
  8 11  1  0
 11 12  2  0
 12 13  1  0
 13 14  2  0
 14 15  1  0
 15 16  2  0
 14 17  1  0
 17 18  1  0
 18 19  2  0
 19 20  1  0
 20 21  2  0
 21 22  1  0
 22 23  2  0
 22 24  1  0
 24 25  2  0
 25 26  1  0
 26 27  2  0
 27 28  1  0
 28 29  1  0
 29 30  2  0
 30 31  1  0
 31 32  2  0
 16 11  1  0
 23 18  1  0
 28 24  1  0
 32 27  1  0
  1 33  1  6
  1 34  1  0
  1 35  1  0
  3 36  1  6
  3 37  1  0
  3 38  1  0
  4 39  1  6
  4 40  1  0
  5 41  1  6
  5 42  1  0
  6 43  1  6
  6 44  1  0
  7 45  1  0
 12 46  1  0
 13 47  1  0
 15 48  1  0
 16 49  1  0
 17 50  1  0
 20 51  1  0
 21 52  1  0
 25 53  1  0
 30 54  1  0
 31 55  1  0
 32 56  1  0
M  END
$$$$
