 energy: -91.990633335198 gnorm: 0.000031954043 xtb: 6.5.1 (9af7eec)
     RDKit          3D

 56 59  0  0  0  0  0  0  0  0999 V2000
   -0.5670    1.5896   -5.9317 C   0  0  1  0  0  0  0  0  0  0  0  0
   -0.1324    1.6183   -4.5507 N   0  0  0  0  0  0  0  0  0  0  0  0
   -0.7272    2.7391   -3.8533 C   0  0  1  0  0  0  0  0  0  0  0  0
   -0.4052    0.3735   -3.8505 C   0  0  1  0  0  0  0  0  0  0  0  0
    0.4430   -0.7965   -4.3494 C   0  0  1  0  0  0  0  0  0  0  0  0
    1.9342   -0.4923   -4.2273 C   0  0  1  0  0  0  0  0  0  0  0  0
    2.3252   -0.3637   -2.8402 N   0  0  0  0  0  0  0  0  0  0  0  0
    3.7366    0.5006   -2.5745 S   0  0  1  0  0  6  0  0  0  0  0  0
    4.1187    0.2205   -1.2192 O   0  0  0  0  0  0  0  0  0  0  0  0
    4.6915    0.2534   -3.6207 O   0  0  0  0  0  0  0  0  0  0  0  0
    3.1199    2.1618   -2.7056 C   0  0  0  0  0  0  0  0  0  0  0  0
    3.2883    2.8820   -3.8721 C   0  0  0  0  0  0  0  0  0  0  0  0
    2.7489    4.1484   -3.9676 C   0  0  0  0  0  0  0  0  0  0  0  0
    2.0424    4.6998   -2.8933 C   0  0  0  0  0  0  0  0  0  0  0  0
    1.8966    3.9666   -1.7129 C   0  0  0  0  0  0  0  0  0  0  0  0
    2.4332    2.6964   -1.6335 C   0  0  0  0  0  0  0  0  0  0  0  0
    1.5094    5.9641   -3.0601 N   0  0  0  0  0  0  0  0  0  0  0  0
    0.7588    6.7427   -2.2340 C   0  0  0  0  0  0  0  0  0  0  0  0
    0.4029    7.9110   -2.7870 N   0  0  0  0  0  0  0  0  0  0  0  0
   -0.3278    8.7196   -2.0422 C   0  0  0  0  0  0  0  0  0  0  0  0
   -0.7169    8.4028   -0.7530 C   0  0  0  0  0  0  0  0  0  0  0  0
   -0.2934    7.1603   -0.2635 C   0  0  0  0  0  0  0  0  0  0  0  0
    0.4387    6.3376   -1.0123 N   0  0  0  0  0  0  0  0  0  0  0  0
   -0.6339    6.7344    1.0731 C   0  0  0  0  0  0  0  0  0  0  0  0
   -1.4601    7.3367    2.0213 C   0  0  0  0  0  0  0  0  0  0  0  0
   -1.5152    6.6357    3.1544 N   0  0  0  0  0  0  0  0  0  0  0  0
   -0.7333    5.5823    2.9656 C   0  0  0  0  0  0  0  0  0  0  0  0
   -0.1737    5.6054    1.6884 N   0  0  0  0  0  0  0  0  0  0  0  0
    0.6495    4.6912    1.2197 N   0  0  0  0  0  0  0  0  0  0  0  0
    0.9545    3.7069    2.0133 C   0  0  0  0  0  0  0  0  0  0  0  0
    0.4568    3.5662    3.3255 C   0  0  0  0  0  0  0  0  0  0  0  0
   -0.4021    4.5175    3.8103 C   0  0  0  0  0  0  0  0  0  0  0  0
   -0.3475    2.5528   -6.3895 H   0  0  0  0  0  0  0  0  0  0  0  0
   -0.0206    0.8236   -6.4766 H   0  0  0  0  0  0  0  0  0  0  0  0
   -1.6471    1.3932   -6.0326 H   0  0  0  0  0  0  0  0  0  0  0  0
   -0.4575    3.6612   -4.3660 H   0  0  0  0  0  0  0  0  0  0  0  0
   -1.8266    2.6747   -3.8068 H   0  0  0  0  0  0  0  0  0  0  0  0
   -0.3352    2.7842   -2.8390 H   0  0  0  0  0  0  0  0  0  0  0  0
   -0.1600    0.5366   -2.7987 H   0  0  0  0  0  0  0  0  0  0  0  0
   -1.4749    0.0991   -3.9201 H   0  0  0  0  0  0  0  0  0  0  0  0
    0.1993   -1.6768   -3.7513 H   0  0  0  0  0  0  0  0  0  0  0  0
    0.2123   -1.0266   -5.3895 H   0  0  0  0  0  0  0  0  0  0  0  0
    2.5272   -1.2583   -4.7438 H   0  0  0  0  0  0  0  0  0  0  0  0
    2.1368    0.4743   -4.6902 H   0  0  0  0  0  0  0  0  0  0  0  0
    2.3300   -1.2341   -2.3299 H   0  0  0  0  0  0  0  0  0  0  0  0
    3.8498    2.4443   -4.6821 H   0  0  0  0  0  0  0  0  0  0  0  0
    2.8700    4.7204   -4.8765 H   0  0  0  0  0  0  0  0  0  0  0  0
    1.3681    4.4019   -0.8808 H   0  0  0  0  0  0  0  0  0  0  0  0
    2.3377    2.1003   -0.7406 H   0  0  0  0  0  0  0  0  0  0  0  0
    1.6796    6.4089   -3.9535 H   0  0  0  0  0  0  0  0  0  0  0  0
   -0.6063    9.6581   -2.5046 H   0  0  0  0  0  0  0  0  0  0  0  0
   -1.3057    9.0780   -0.1583 H   0  0  0  0  0  0  0  0  0  0  0  0
   -2.0203    8.2459    1.9244 H   0  0  0  0  0  0  0  0  0  0  0  0
    1.6359    2.9825    1.5939 H   0  0  0  0  0  0  0  0  0  0  0  0
    0.7558    2.7218    3.9242 H   0  0  0  0  0  0  0  0  0  0  0  0
   -0.8247    4.4827    4.8010 H   0  0  0  0  0  0  0  0  0  0  0  0
  1  2  1  0
  2  3  1  0
  2  4  1  0
  4  5  1  0
  5  6  1  0
  6  7  1  0
  8  7  1  6
  8  9  2  0
  8 10  2  0
  8 11  1  0
 11 12  2  0
 12 13  1  0
 13 14  2  0
 14 15  1  0
 15 16  2  0
 14 17  1  0
 17 18  1  0
 18 19  2  0
 19 20  1  0
 20 21  2  0
 21 22  1  0
 22 23  2  0
 22 24  1  0
 24 25  2  0
 25 26  1  0
 26 27  2  0
 27 28  1  0
 28 29  1  0
 29 30  2  0
 30 31  1  0
 31 32  2  0
 16 11  1  0
 23 18  1  0
 28 24  1  0
 32 27  1  0
  1 33  1  6
  1 34  1  0
  1 35  1  0
  3 36  1  6
  3 37  1  0
  3 38  1  0
  4 39  1  1
  4 40  1  0
  5 41  1  1
  5 42  1  0
  6 43  1  6
  6 44  1  0
  7 45  1  0
 12 46  1  0
 13 47  1  0
 15 48  1  0
 16 49  1  0
 17 50  1  0
 20 51  1  0
 21 52  1  0
 25 53  1  0
 30 54  1  0
 31 55  1  0
 32 56  1  0
M  END
$$$$
