 energy: -91.989775266693 gnorm: 0.000040208090 xtb: 6.5.1 (9af7eec)
     RDKit          3D

 56 59  0  0  0  0  0  0  0  0999 V2000
   13.0383   -7.3985    2.9108 C   0  0  1  0  0  0  0  0  0  0  0  0
   12.6184   -6.0212    2.7573 N   0  0  0  0  0  0  0  0  0  0  0  0
   13.7657   -5.1601    2.5573 C   0  0  1  0  0  0  0  0  0  0  0  0
   11.6312   -5.8941    1.6965 C   0  0  1  0  0  0  0  0  0  0  0  0
   10.9404   -4.5310    1.7082 C   0  0  1  0  0  0  0  0  0  0  0  0
    9.6786   -4.5236    0.8498 C   0  0  1  0  0  0  0  0  0  0  0  0
   10.0048   -4.8287   -0.5324 N   0  0  0  0  0  0  0  0  0  0  0  0
   10.7813   -3.6089   -1.3957 S   0  0  1  0  0  6  0  0  0  0  0  0
   10.3690   -3.7766   -2.7607 O   0  0  0  0  0  0  0  0  0  0  0  0
   10.5771   -2.3342   -0.7654 O   0  0  0  0  0  0  0  0  0  0  0  0
   12.4951   -4.0721   -1.2559 C   0  0  0  0  0  0  0  0  0  0  0  0
   13.4100   -3.2179   -0.6723 C   0  0  0  0  0  0  0  0  0  0  0  0
   14.7343   -3.5955   -0.5562 C   0  0  0  0  0  0  0  0  0  0  0  0
   15.1448   -4.8425   -1.0339 C   0  0  0  0  0  0  0  0  0  0  0  0
   14.2070   -5.6895   -1.6380 C   0  0  0  0  0  0  0  0  0  0  0  0
   12.8867   -5.3039   -1.7465 C   0  0  0  0  0  0  0  0  0  0  0  0
   16.4471   -5.2929   -0.9397 N   0  0  0  0  0  0  0  0  0  0  0  0
   17.5542   -4.7239   -0.3841 C   0  0  0  0  0  0  0  0  0  0  0  0
   17.4856   -3.5377    0.2162 N   0  0  0  0  0  0  0  0  0  0  0  0
   18.6142   -3.0708    0.7264 C   0  0  0  0  0  0  0  0  0  0  0  0
   19.8148   -3.7511    0.6571 C   0  0  0  0  0  0  0  0  0  0  0  0
   19.7837   -4.9925    0.0083 C   0  0  0  0  0  0  0  0  0  0  0  0
   18.6520   -5.4707   -0.5066 N   0  0  0  0  0  0  0  0  0  0  0  0
   20.9441   -5.8344   -0.1528 C   0  0  0  0  0  0  0  0  0  0  0  0
   21.0322   -7.0806   -0.7722 C   0  0  0  0  0  0  0  0  0  0  0  0
   22.2721   -7.5689   -0.7359 N   0  0  0  0  0  0  0  0  0  0  0  0
   23.0000   -6.6612   -0.1021 C   0  0  0  0  0  0  0  0  0  0  0  0
   22.2111   -5.5707    0.2756 N   0  0  0  0  0  0  0  0  0  0  0  0
   22.6635   -4.5123    0.9236 N   0  0  0  0  0  0  0  0  0  0  0  0
   23.9308   -4.5003    1.2215 C   0  0  0  0  0  0  0  0  0  0  0  0
   24.8304   -5.5350    0.8973 C   0  0  0  0  0  0  0  0  0  0  0  0
   24.3584   -6.6330    0.2252 C   0  0  0  0  0  0  0  0  0  0  0  0
   13.7356   -7.4664    3.7445 H   0  0  0  0  0  0  0  0  0  0  0  0
   12.1711   -8.0178    3.1353 H   0  0  0  0  0  0  0  0  0  0  0  0
   13.5311   -7.7969    2.0092 H   0  0  0  0  0  0  0  0  0  0  0  0
   14.4465   -5.2825    3.3988 H   0  0  0  0  0  0  0  0  0  0  0  0
   14.3107   -5.3882    1.6278 H   0  0  0  0  0  0  0  0  0  0  0  0
   13.4461   -4.1223    2.5243 H   0  0  0  0  0  0  0  0  0  0  0  0
   12.0731   -6.0757    0.7015 H   0  0  0  0  0  0  0  0  0  0  0  0
   10.8729   -6.6626    1.8708 H   0  0  0  0  0  0  0  0  0  0  0  0
   10.6684   -4.2875    2.7364 H   0  0  0  0  0  0  0  0  0  0  0  0
   11.6079   -3.7561    1.3342 H   0  0  0  0  0  0  0  0  0  0  0  0
    8.9757   -5.2801    1.2069 H   0  0  0  0  0  0  0  0  0  0  0  0
    9.2074   -3.5347    0.9201 H   0  0  0  0  0  0  0  0  0  0  0  0
    9.2113   -5.1380   -1.0731 H   0  0  0  0  0  0  0  0  0  0  0  0
   13.0686   -2.2592   -0.3144 H   0  0  0  0  0  0  0  0  0  0  0  0
   15.4619   -2.9479   -0.0973 H   0  0  0  0  0  0  0  0  0  0  0  0
   14.5240   -6.6511   -2.0158 H   0  0  0  0  0  0  0  0  0  0  0  0
   12.1497   -5.9397   -2.2098 H   0  0  0  0  0  0  0  0  0  0  0  0
   16.6432   -6.1962   -1.3518 H   0  0  0  0  0  0  0  0  0  0  0  0
   18.5363   -2.1054    1.2095 H   0  0  0  0  0  0  0  0  0  0  0  0
   20.7247   -3.3589    1.0742 H   0  0  0  0  0  0  0  0  0  0  0  0
   20.2307   -7.6205   -1.2348 H   0  0  0  0  0  0  0  0  0  0  0  0
   24.2603   -3.6187    1.7502 H   0  0  0  0  0  0  0  0  0  0  0  0
   25.8669   -5.4507    1.1788 H   0  0  0  0  0  0  0  0  0  0  0  0
   24.9833   -7.4641   -0.0577 H   0  0  0  0  0  0  0  0  0  0  0  0
  1  2  1  0
  2  3  1  0
  2  4  1  0
  4  5  1  0
  5  6  1  0
  6  7  1  0
  8  7  1  1
  8  9  2  0
  8 10  2  0
  8 11  1  0
 11 12  2  0
 12 13  1  0
 13 14  2  0
 14 15  1  0
 15 16  2  0
 14 17  1  0
 17 18  1  0
 18 19  2  0
 19 20  1  0
 20 21  2  0
 21 22  1  0
 22 23  2  0
 22 24  1  0
 24 25  2  0
 25 26  1  0
 26 27  2  0
 27 28  1  0
 28 29  1  0
 29 30  2  0
 30 31  1  0
 31 32  2  0
 16 11  1  0
 23 18  1  0
 28 24  1  0
 32 27  1  0
  1 33  1  1
  1 34  1  0
  1 35  1  0
  3 36  1  1
  3 37  1  0
  3 38  1  0
  4 39  1  6
  4 40  1  0
  5 41  1  1
  5 42  1  0
  6 43  1  1
  6 44  1  0
  7 45  1  0
 12 46  1  0
 13 47  1  0
 15 48  1  0
 16 49  1  0
 17 50  1  0
 20 51  1  0
 21 52  1  0
 25 53  1  0
 30 54  1  0
 31 55  1  0
 32 56  1  0
M  END
$$$$
