 energy: -91.988540335713 gnorm: 0.000048391545 xtb: 6.5.1 (9af7eec)
     RDKit          3D

 56 59  0  0  0  0  0  0  0  0999 V2000
   10.0874    0.2339    3.5527 C   0  0  1  0  0  0  0  0  0  0  0  0
    8.9287    0.9435    4.0455 N   0  0  0  0  0  0  0  0  0  0  0  0
    8.8873    2.3096    3.5659 C   0  0  1  0  0  0  0  0  0  0  0  0
    7.6932    0.2137    3.8043 C   0  0  1  0  0  0  0  0  0  0  0  0
    7.3565   -0.6591    5.0165 C   0  0  1  0  0  0  0  0  0  0  0  0
    6.9324    0.2371    6.1814 C   0  0  1  0  0  0  0  0  0  0  0  0
    5.6430    0.8344    5.9234 N   0  0  0  0  0  0  0  0  0  0  0  0
    5.3935    2.4335    6.2852 S   0  0  1  0  0  6  0  0  0  0  0  0
    6.3772    3.2021    5.5824 O   0  0  0  0  0  0  0  0  0  0  0  0
    4.0034    2.6739    6.0279 O   0  0  0  0  0  0  0  0  0  0  0  0
    5.7056    2.5546    8.0393 C   0  0  0  0  0  0  0  0  0  0  0  0
    6.9510    2.9360    8.5002 C   0  0  0  0  0  0  0  0  0  0  0  0
    7.2024    2.9808    9.8582 C   0  0  0  0  0  0  0  0  0  0  0  0
    6.1938    2.6413   10.7631 C   0  0  0  0  0  0  0  0  0  0  0  0
    4.9361    2.2615   10.2790 C   0  0  0  0  0  0  0  0  0  0  0  0
    4.6962    2.2167    8.9211 C   0  0  0  0  0  0  0  0  0  0  0  0
    6.3710    2.6656   12.1328 N   0  0  0  0  0  0  0  0  0  0  0  0
    7.4540    2.9941   12.8920 C   0  0  0  0  0  0  0  0  0  0  0  0
    8.6073    3.3428   12.3254 N   0  0  0  0  0  0  0  0  0  0  0  0
    9.5991    3.6450   13.1481 C   0  0  0  0  0  0  0  0  0  0  0  0
    9.4790    3.6094   14.5242 C   0  0  0  0  0  0  0  0  0  0  0  0
    8.2276    3.2260   15.0242 C   0  0  0  0  0  0  0  0  0  0  0  0
    7.2239    2.9204   14.2036 N   0  0  0  0  0  0  0  0  0  0  0  0
    7.9293    3.1323   16.4327 C   0  0  0  0  0  0  0  0  0  0  0  0
    6.7317    2.7603   17.0424 C   0  0  0  0  0  0  0  0  0  0  0  0
    6.8200    2.7870   18.3725 N   0  0  0  0  0  0  0  0  0  0  0  0
    8.0581    3.1719   18.6450 C   0  0  0  0  0  0  0  0  0  0  0  0
    8.7772    3.3953   17.4672 N   0  0  0  0  0  0  0  0  0  0  0  0
   10.0378    3.7872   17.4265 N   0  0  0  0  0  0  0  0  0  0  0  0
   10.6347    3.9735   18.5684 C   0  0  0  0  0  0  0  0  0  0  0  0
   10.0219    3.7834   19.8227 C   0  0  0  0  0  0  0  0  0  0  0  0
    8.7132    3.3761   19.8626 C   0  0  0  0  0  0  0  0  0  0  0  0
   10.9894    0.7538    3.8739 H   0  0  0  0  0  0  0  0  0  0  0  0
   10.1034   -0.7719    3.9699 H   0  0  0  0  0  0  0  0  0  0  0  0
   10.1047    0.1545    2.4526 H   0  0  0  0  0  0  0  0  0  0  0  0
    9.8142    2.8080    3.8493 H   0  0  0  0  0  0  0  0  0  0  0  0
    8.7791    2.3768    2.4719 H   0  0  0  0  0  0  0  0  0  0  0  0
    8.0553    2.8267    4.0411 H   0  0  0  0  0  0  0  0  0  0  0  0
    6.8766    0.9259    3.6739 H   0  0  0  0  0  0  0  0  0  0  0  0
    7.7581   -0.4061    2.8962 H   0  0  0  0  0  0  0  0  0  0  0  0
    6.5481   -1.3483    4.7679 H   0  0  0  0  0  0  0  0  0  0  0  0
    8.2311   -1.2380    5.3136 H   0  0  0  0  0  0  0  0  0  0  0  0
    6.9321   -0.3203    7.1276 H   0  0  0  0  0  0  0  0  0  0  0  0
    7.6462    1.0588    6.2517 H   0  0  0  0  0  0  0  0  0  0  0  0
    4.8393    0.2603    6.1128 H   0  0  0  0  0  0  0  0  0  0  0  0
    7.7082    3.2111    7.7834 H   0  0  0  0  0  0  0  0  0  0  0  0
    8.1650    3.2780   10.2380 H   0  0  0  0  0  0  0  0  0  0  0  0
    4.1511    2.0069   10.9766 H   0  0  0  0  0  0  0  0  0  0  0  0
    3.7299    1.9425    8.5281 H   0  0  0  0  0  0  0  0  0  0  0  0
    5.5660    2.4209   12.6953 H   0  0  0  0  0  0  0  0  0  0  0  0
   10.5270    3.9266   12.6671 H   0  0  0  0  0  0  0  0  0  0  0  0
   10.2930    3.8588   15.1807 H   0  0  0  0  0  0  0  0  0  0  0  0
    5.8245    2.4790   16.5468 H   0  0  0  0  0  0  0  0  0  0  0  0
   11.6629    4.2932   18.4916 H   0  0  0  0  0  0  0  0  0  0  0  0
   10.5840    3.9588   20.7249 H   0  0  0  0  0  0  0  0  0  0  0  0
    8.1759    3.2092   20.7816 H   0  0  0  0  0  0  0  0  0  0  0  0
  1  2  1  0
  2  3  1  0
  2  4  1  0
  4  5  1  0
  5  6  1  0
  6  7  1  0
  8  7  1  6
  8  9  2  0
  8 10  2  0
  8 11  1  0
 11 12  2  0
 12 13  1  0
 13 14  2  0
 14 15  1  0
 15 16  2  0
 14 17  1  0
 17 18  1  0
 18 19  2  0
 19 20  1  0
 20 21  2  0
 21 22  1  0
 22 23  2  0
 22 24  1  0
 24 25  2  0
 25 26  1  0
 26 27  2  0
 27 28  1  0
 28 29  1  0
 29 30  2  0
 30 31  1  0
 31 32  2  0
 16 11  1  0
 23 18  1  0
 28 24  1  0
 32 27  1  0
  1 33  1  1
  1 34  1  0
  1 35  1  0
  3 36  1  6
  3 37  1  0
  3 38  1  0
  4 39  1  6
  4 40  1  0
  5 41  1  6
  5 42  1  0
  6 43  1  1
  6 44  1  0
  7 45  1  0
 12 46  1  0
 13 47  1  0
 15 48  1  0
 16 49  1  0
 17 50  1  0
 20 51  1  0
 21 52  1  0
 25 53  1  0
 30 54  1  0
 31 55  1  0
 32 56  1  0
M  END
$$$$
