 energy: -91.989753117587 gnorm: 0.000044085886 xtb: 6.5.1 (9af7eec)
     RDKit          3D

 56 59  0  0  0  0  0  0  0  0999 V2000
    9.7497   -3.1314    2.4676 C   0  0  1  0  0  0  0  0  0  0  0  0
    9.2468   -2.8607    1.1346 N   0  0  0  0  0  0  0  0  0  0  0  0
   10.0178   -3.5793    0.1377 C   0  0  1  0  0  0  0  0  0  0  0  0
    7.8189   -3.1370    1.0284 C   0  0  1  0  0  0  0  0  0  0  0  0
    7.1462   -2.3764   -0.1180 C   0  0  1  0  0  0  0  0  0  0  0  0
    7.2078   -0.8656    0.0882 C   0  0  1  0  0  0  0  0  0  0  0  0
    8.5675   -0.3904   -0.0536 N   0  0  0  0  0  0  0  0  0  0  0  0
    8.8419    1.1512    0.4984 S   0  0  1  0  0  6  0  0  0  0  0  0
   10.2314    1.4294    0.2841 O   0  0  0  0  0  0  0  0  0  0  0  0
    7.8581    2.0137   -0.0883 O   0  0  0  0  0  0  0  0  0  0  0  0
    8.5347    1.0277    2.2585 C   0  0  0  0  0  0  0  0  0  0  0  0
    7.3429    1.4805    2.7916 C   0  0  0  0  0  0  0  0  0  0  0  0
    7.0896    1.3048    4.1378 C   0  0  0  0  0  0  0  0  0  0  0  0
    8.0280    0.6667    4.9565 C   0  0  0  0  0  0  0  0  0  0  0  0
    9.2305    0.2197    4.4028 C   0  0  0  0  0  0  0  0  0  0  0  0
    9.4750    0.4029    3.0554 C   0  0  0  0  0  0  0  0  0  0  0  0
    7.7156    0.5146    6.2940 N   0  0  0  0  0  0  0  0  0  0  0  0
    8.3907   -0.0902    7.3089 C   0  0  0  0  0  0  0  0  0  0  0  0
    9.5434   -0.7218    7.0945 N   0  0  0  0  0  0  0  0  0  0  0  0
   10.1125   -1.2787    8.1533 C   0  0  0  0  0  0  0  0  0  0  0  0
    9.5672   -1.2266    9.4201 C   0  0  0  0  0  0  0  0  0  0  0  0
    8.3468   -0.5425    9.5425 C   0  0  0  0  0  0  0  0  0  0  0  0
    7.7717    0.0154    8.4855 N   0  0  0  0  0  0  0  0  0  0  0  0
    7.6734   -0.4182   10.8122 C   0  0  0  0  0  0  0  0  0  0  0  0
    8.0223   -0.8964   12.0737 C   0  0  0  0  0  0  0  0  0  0  0  0
    7.1237   -0.5610   13.0007 N   0  0  0  0  0  0  0  0  0  0  0  0
    6.1898    0.1321   12.3647 C   0  0  0  0  0  0  0  0  0  0  0  0
    6.4937    0.2417   11.0075 N   0  0  0  0  0  0  0  0  0  0  0  0
    5.7497    0.8740   10.1239 N   0  0  0  0  0  0  0  0  0  0  0  0
    4.6605    1.4301   10.5655 C   0  0  0  0  0  0  0  0  0  0  0  0
    4.2386    1.3942   11.9113 C   0  0  0  0  0  0  0  0  0  0  0  0
    5.0150    0.7342   12.8270 C   0  0  0  0  0  0  0  0  0  0  0  0
   10.8044   -2.8637    2.5081 H   0  0  0  0  0  0  0  0  0  0  0  0
    9.2110   -2.5214    3.1916 H   0  0  0  0  0  0  0  0  0  0  0  0
    9.6490   -4.1902    2.7502 H   0  0  0  0  0  0  0  0  0  0  0  0
   11.0640   -3.2895    0.2212 H   0  0  0  0  0  0  0  0  0  0  0  0
    9.9440   -4.6710    0.2604 H   0  0  0  0  0  0  0  0  0  0  0  0
    9.6696   -3.3146   -0.8575 H   0  0  0  0  0  0  0  0  0  0  0  0
    7.6334   -4.2186    0.9062 H   0  0  0  0  0  0  0  0  0  0  0  0
    7.3497   -2.8235    1.9653 H   0  0  0  0  0  0  0  0  0  0  0  0
    7.6153   -2.6222   -1.0699 H   0  0  0  0  0  0  0  0  0  0  0  0
    6.1006   -2.6853   -0.1652 H   0  0  0  0  0  0  0  0  0  0  0  0
    6.6040   -0.3439   -0.6586 H   0  0  0  0  0  0  0  0  0  0  0  0
    6.8044   -0.6184    1.0829 H   0  0  0  0  0  0  0  0  0  0  0  0
    9.2199   -1.0516    0.3644 H   0  0  0  0  0  0  0  0  0  0  0  0
    6.6383    1.9746    2.1412 H   0  0  0  0  0  0  0  0  0  0  0  0
    6.1633    1.6595    4.5664 H   0  0  0  0  0  0  0  0  0  0  0  0
    9.9505   -0.2635    5.0415 H   0  0  0  0  0  0  0  0  0  0  0  0
   10.4004    0.0783    2.6069 H   0  0  0  0  0  0  0  0  0  0  0  0
    6.8484    0.9311    6.6100 H   0  0  0  0  0  0  0  0  0  0  0  0
   11.0486   -1.7866    7.9589 H   0  0  0  0  0  0  0  0  0  0  0  0
   10.0498   -1.6843   10.2651 H   0  0  0  0  0  0  0  0  0  0  0  0
    8.8872   -1.4695   12.3446 H   0  0  0  0  0  0  0  0  0  0  0  0
    4.0764    1.9398    9.8141 H   0  0  0  0  0  0  0  0  0  0  0  0
    3.3212    1.8808   12.1993 H   0  0  0  0  0  0  0  0  0  0  0  0
    4.7630    0.6608   13.8723 H   0  0  0  0  0  0  0  0  0  0  0  0
  1  2  1  0
  2  3  1  0
  2  4  1  0
  4  5  1  0
  5  6  1  0
  6  7  1  0
  8  7  1  6
  8  9  2  0
  8 10  2  0
  8 11  1  0
 11 12  2  0
 12 13  1  0
 13 14  2  0
 14 15  1  0
 15 16  2  0
 14 17  1  0
 17 18  1  0
 18 19  2  0
 19 20  1  0
 20 21  2  0
 21 22  1  0
 22 23  2  0
 22 24  1  0
 24 25  2  0
 25 26  1  0
 26 27  2  0
 27 28  1  0
 28 29  1  0
 29 30  2  0
 30 31  1  0
 31 32  2  0
 16 11  1  0
 23 18  1  0
 28 24  1  0
 32 27  1  0
  1 33  1  6
  1 34  1  0
  1 35  1  0
  3 36  1  6
  3 37  1  0
  3 38  1  0
  4 39  1  6
  4 40  1  0
  5 41  1  6
  5 42  1  0
  6 43  1  6
  6 44  1  0
  7 45  1  0
 12 46  1  0
 13 47  1  0
 15 48  1  0
 16 49  1  0
 17 50  1  0
 20 51  1  0
 21 52  1  0
 25 53  1  0
 30 54  1  0
 31 55  1  0
 32 56  1  0
M  END
$$$$
