 energy: -91.988819811513 gnorm: 0.000035137438 xtb: 6.5.1 (9af7eec)
     RDKit          3D

 56 59  0  0  0  0  0  0  0  0999 V2000
    6.8837   -3.1195   -0.1640 C   0  0  1  0  0  0  0  0  0  0  0  0
    7.3654   -1.8356    0.2993 N   0  0  0  0  0  0  0  0  0  0  0  0
    8.7872   -1.8809    0.5600 C   0  0  1  0  0  0  0  0  0  0  0  0
    7.0057   -0.7422   -0.5890 C   0  0  1  0  0  0  0  0  0  0  0  0
    6.9066    0.5813    0.1740 C   0  0  1  0  0  0  0  0  0  0  0  0
    5.7765    0.5204    1.2058 C   0  0  1  0  0  0  0  0  0  0  0  0
    6.0640    1.3468    2.3576 N   0  0  0  0  0  0  0  0  0  0  0  0
    5.5455    0.7273    3.8249 S   0  0  1  0  0  6  0  0  0  0  0  0
    5.7797    1.7554    4.7971 O   0  0  0  0  0  0  0  0  0  0  0  0
    4.2209    0.1780    3.7190 O   0  0  0  0  0  0  0  0  0  0  0  0
    6.7231   -0.5959    3.9955 C   0  0  0  0  0  0  0  0  0  0  0  0
    8.0244   -0.2879    4.3420 C   0  0  0  0  0  0  0  0  0  0  0  0
    8.9767   -1.2862    4.3541 C   0  0  0  0  0  0  0  0  0  0  0  0
    8.6327   -2.5933    3.9920 C   0  0  0  0  0  0  0  0  0  0  0  0
    7.3072   -2.8927    3.6749 C   0  0  0  0  0  0  0  0  0  0  0  0
    6.3580   -1.8899    3.6792 C   0  0  0  0  0  0  0  0  0  0  0  0
    9.6373   -3.5459    3.9755 N   0  0  0  0  0  0  0  0  0  0  0  0
    9.6694   -4.7795    3.4001 C   0  0  0  0  0  0  0  0  0  0  0  0
    8.6212   -5.2353    2.7146 N   0  0  0  0  0  0  0  0  0  0  0  0
    8.7480   -6.4383    2.1776 C   0  0  0  0  0  0  0  0  0  0  0  0
    9.8888   -7.2076    2.3040 C   0  0  0  0  0  0  0  0  0  0  0  0
   10.9381   -6.6383    3.0373 C   0  0  0  0  0  0  0  0  0  0  0  0
   10.8224   -5.4254    3.5756 N   0  0  0  0  0  0  0  0  0  0  0  0
   12.2002   -7.3001    3.2620 C   0  0  0  0  0  0  0  0  0  0  0  0
   13.3128   -6.8317    3.9599 C   0  0  0  0  0  0  0  0  0  0  0  0
   14.3072   -7.7195    3.9665 N   0  0  0  0  0  0  0  0  0  0  0  0
   13.8636   -8.7648    3.2839 C   0  0  0  0  0  0  0  0  0  0  0  0
   12.5602   -8.5420    2.8301 N   0  0  0  0  0  0  0  0  0  0  0  0
   11.8592   -9.4087    2.1217 N   0  0  0  0  0  0  0  0  0  0  0  0
   12.4355  -10.5409    1.8372 C   0  0  0  0  0  0  0  0  0  0  0  0
   13.7420  -10.8867    2.2350 C   0  0  0  0  0  0  0  0  0  0  0  0
   14.4683   -9.9850    2.9695 C   0  0  0  0  0  0  0  0  0  0  0  0
    7.1407   -3.8739    0.5783 H   0  0  0  0  0  0  0  0  0  0  0  0
    5.7999   -3.0833   -0.2631 H   0  0  0  0  0  0  0  0  0  0  0  0
    7.3167   -3.4178   -1.1324 H   0  0  0  0  0  0  0  0  0  0  0  0
    8.9969   -2.7135    1.2277 H   0  0  0  0  0  0  0  0  0  0  0  0
    9.3804   -2.0114   -0.3610 H   0  0  0  0  0  0  0  0  0  0  0  0
    9.1008   -0.9612    1.0494 H   0  0  0  0  0  0  0  0  0  0  0  0
    7.7281   -0.6376   -1.4175 H   0  0  0  0  0  0  0  0  0  0  0  0
    6.0282   -0.9610   -1.0253 H   0  0  0  0  0  0  0  0  0  0  0  0
    7.8387    0.7747    0.7038 H   0  0  0  0  0  0  0  0  0  0  0  0
    6.7434    1.3971   -0.5315 H   0  0  0  0  0  0  0  0  0  0  0  0
    4.8131    0.7738    0.7487 H   0  0  0  0  0  0  0  0  0  0  0  0
    5.7194   -0.5034    1.5777 H   0  0  0  0  0  0  0  0  0  0  0  0
    5.8466    2.3255    2.2552 H   0  0  0  0  0  0  0  0  0  0  0  0
    8.2668    0.7310    4.5976 H   0  0  0  0  0  0  0  0  0  0  0  0
    9.9980   -1.0601    4.6252 H   0  0  0  0  0  0  0  0  0  0  0  0
    7.0440   -3.9025    3.4119 H   0  0  0  0  0  0  0  0  0  0  0  0
    5.3260   -2.0972    3.4454 H   0  0  0  0  0  0  0  0  0  0  0  0
   10.5248   -3.2794    4.3815 H   0  0  0  0  0  0  0  0  0  0  0  0
    7.8869   -6.7883    1.6224 H   0  0  0  0  0  0  0  0  0  0  0  0
    9.9758   -8.1856    1.8663 H   0  0  0  0  0  0  0  0  0  0  0  0
   13.4055   -5.8826    4.4484 H   0  0  0  0  0  0  0  0  0  0  0  0
   11.8294  -11.2212    1.2579 H   0  0  0  0  0  0  0  0  0  0  0  0
   14.1492  -11.8454    1.9597 H   0  0  0  0  0  0  0  0  0  0  0  0
   15.4725  -10.1757    3.3105 H   0  0  0  0  0  0  0  0  0  0  0  0
  1  2  1  0
  2  3  1  0
  2  4  1  0
  4  5  1  0
  5  6  1  0
  6  7  1  0
  8  7  1  6
  8  9  2  0
  8 10  2  0
  8 11  1  0
 11 12  2  0
 12 13  1  0
 13 14  2  0
 14 15  1  0
 15 16  2  0
 14 17  1  0
 17 18  1  0
 18 19  2  0
 19 20  1  0
 20 21  2  0
 21 22  1  0
 22 23  2  0
 22 24  1  0
 24 25  2  0
 25 26  1  0
 26 27  2  0
 27 28  1  0
 28 29  1  0
 29 30  2  0
 30 31  1  0
 31 32  2  0
 16 11  1  0
 23 18  1  0
 28 24  1  0
 32 27  1  0
  1 33  1  1
  1 34  1  0
  1 35  1  0
  3 36  1  1
  3 37  1  0
  3 38  1  0
  4 39  1  6
  4 40  1  0
  5 41  1  1
  5 42  1  0
  6 43  1  6
  6 44  1  0
  7 45  1  0
 12 46  1  0
 13 47  1  0
 15 48  1  0
 16 49  1  0
 17 50  1  0
 20 51  1  0
 21 52  1  0
 25 53  1  0
 30 54  1  0
 31 55  1  0
 32 56  1  0
M  END
$$$$
