 energy: -91.988669157167 gnorm: 0.000016105156 xtb: 6.5.1 (9af7eec)
     RDKit          3D

 56 59  0  0  0  0  0  0  0  0999 V2000
    2.2207   -5.7239   -5.1282 C   0  0  1  0  0  0  0  0  0  0  0  0
    2.5141   -5.5349   -3.7238 N   0  0  0  0  0  0  0  0  0  0  0  0
    3.5327   -6.4622   -3.2791 C   0  0  1  0  0  0  0  0  0  0  0  0
    2.8583   -4.1520   -3.4309 C   0  0  1  0  0  0  0  0  0  0  0  0
    2.6372   -3.7976   -1.9598 C   0  0  1  0  0  0  0  0  0  0  0  0
    1.1926   -4.0359   -1.5296 C   0  0  1  0  0  0  0  0  0  0  0  0
    0.2888   -3.1794   -2.2763 N   0  0  0  0  0  0  0  0  0  0  0  0
    0.3398   -1.5363   -1.9255 S   0  0  1  0  0  6  0  0  0  0  0  0
   -0.9859   -1.0436   -2.1762 O   0  0  0  0  0  0  0  0  0  0  0  0
    0.9282   -1.3027   -0.6352 O   0  0  0  0  0  0  0  0  0  0  0  0
    1.4311   -0.9290   -3.1957 C   0  0  0  0  0  0  0  0  0  0  0  0
    2.5643   -0.2083   -2.8726 C   0  0  0  0  0  0  0  0  0  0  0  0
    3.4063    0.2188   -3.8801 C   0  0  0  0  0  0  0  0  0  0  0  0
    3.1228   -0.0857   -5.2163 C   0  0  0  0  0  0  0  0  0  0  0  0
    1.9705   -0.8116   -5.5285 C   0  0  0  0  0  0  0  0  0  0  0  0
    1.1289   -1.2204   -4.5124 C   0  0  0  0  0  0  0  0  0  0  0  0
    4.0083    0.3623   -6.1777 N   0  0  0  0  0  0  0  0  0  0  0  0
    4.0271    0.1992   -7.5292 C   0  0  0  0  0  0  0  0  0  0  0  0
    5.0432    0.8372   -8.1267 N   0  0  0  0  0  0  0  0  0  0  0  0
    5.1225    0.7238   -9.4394 C   0  0  0  0  0  0  0  0  0  0  0  0
    4.2201   -0.0159  -10.1832 C   0  0  0  0  0  0  0  0  0  0  0  0
    3.2003   -0.6548   -9.4662 C   0  0  0  0  0  0  0  0  0  0  0  0
    3.1112   -0.5381   -8.1427 N   0  0  0  0  0  0  0  0  0  0  0  0
    2.2129   -1.4649  -10.1393 C   0  0  0  0  0  0  0  0  0  0  0  0
    2.0008   -1.6698  -11.5021 C   0  0  0  0  0  0  0  0  0  0  0  0
    0.9810   -2.4982  -11.7307 N   0  0  0  0  0  0  0  0  0  0  0  0
    0.5208   -2.8428  -10.5366 C   0  0  0  0  0  0  0  0  0  0  0  0
    1.2554   -2.2212   -9.5263 N   0  0  0  0  0  0  0  0  0  0  0  0
    1.0317   -2.3795   -8.2387 N   0  0  0  0  0  0  0  0  0  0  0  0
    0.0558   -3.1703   -7.9014 C   0  0  0  0  0  0  0  0  0  0  0  0
   -0.7625   -3.8558   -8.8229 C   0  0  0  0  0  0  0  0  0  0  0  0
   -0.5276   -3.6896  -10.1626 C   0  0  0  0  0  0  0  0  0  0  0  0
    1.9205   -6.7584   -5.2920 H   0  0  0  0  0  0  0  0  0  0  0  0
    1.3955   -5.0730   -5.4125 H   0  0  0  0  0  0  0  0  0  0  0  0
    3.0805   -5.5031   -5.7808 H   0  0  0  0  0  0  0  0  0  0  0  0
    3.1966   -7.4800   -3.4723 H   0  0  0  0  0  0  0  0  0  0  0  0
    4.4968   -6.3088   -3.7911 H   0  0  0  0  0  0  0  0  0  0  0  0
    3.6878   -6.3516   -2.2085 H   0  0  0  0  0  0  0  0  0  0  0  0
    3.9042   -3.9272   -3.7074 H   0  0  0  0  0  0  0  0  0  0  0  0
    2.2097   -3.5118   -4.0309 H   0  0  0  0  0  0  0  0  0  0  0  0
    3.2879   -4.3941   -1.3196 H   0  0  0  0  0  0  0  0  0  0  0  0
    2.8862   -2.7476   -1.8070 H   0  0  0  0  0  0  0  0  0  0  0  0
    0.9256   -5.0726   -1.7422 H   0  0  0  0  0  0  0  0  0  0  0  0
    1.1033   -3.8424   -0.4529 H   0  0  0  0  0  0  0  0  0  0  0  0
   -0.6712   -3.4858   -2.2394 H   0  0  0  0  0  0  0  0  0  0  0  0
    2.7680    0.0068   -1.8353 H   0  0  0  0  0  0  0  0  0  0  0  0
    4.2921    0.7884   -3.6387 H   0  0  0  0  0  0  0  0  0  0  0  0
    1.7608   -1.0548   -6.5568 H   0  0  0  0  0  0  0  0  0  0  0  0
    0.2240   -1.7673   -4.7226 H   0  0  0  0  0  0  0  0  0  0  0  0
    4.7815    0.9274   -5.8493 H   0  0  0  0  0  0  0  0  0  0  0  0
    5.9470    1.2480   -9.9055 H   0  0  0  0  0  0  0  0  0  0  0  0
    4.3040   -0.1011  -11.2517 H   0  0  0  0  0  0  0  0  0  0  0  0
    2.5426   -1.2449  -12.3242 H   0  0  0  0  0  0  0  0  0  0  0  0
   -0.0955   -3.2719   -6.8377 H   0  0  0  0  0  0  0  0  0  0  0  0
   -1.5541   -4.4938   -8.4663 H   0  0  0  0  0  0  0  0  0  0  0  0
   -1.1073   -4.1769  -10.9292 H   0  0  0  0  0  0  0  0  0  0  0  0
  1  2  1  0
  2  3  1  0
  2  4  1  0
  4  5  1  0
  5  6  1  0
  6  7  1  0
  8  7  1  6
  8  9  2  0
  8 10  2  0
  8 11  1  0
 11 12  2  0
 12 13  1  0
 13 14  2  0
 14 15  1  0
 15 16  2  0
 14 17  1  0
 17 18  1  0
 18 19  2  0
 19 20  1  0
 20 21  2  0
 21 22  1  0
 22 23  2  0
 22 24  1  0
 24 25  2  0
 25 26  1  0
 26 27  2  0
 27 28  1  0
 28 29  1  0
 29 30  2  0
 30 31  1  0
 31 32  2  0
 16 11  1  0
 23 18  1  0
 28 24  1  0
 32 27  1  0
  1 33  1  1
  1 34  1  0
  1 35  1  0
  3 36  1  1
  3 37  1  0
  3 38  1  0
  4 39  1  6
  4 40  1  0
  5 41  1  1
  5 42  1  0
  6 43  1  1
  6 44  1  0
  7 45  1  0
 12 46  1  0
 13 47  1  0
 15 48  1  0
 16 49  1  0
 17 50  1  0
 20 51  1  0
 21 52  1  0
 25 53  1  0
 30 54  1  0
 31 55  1  0
 32 56  1  0
M  END
$$$$
