 energy: -91.990193505320 gnorm: 0.000026594465 xtb: 6.5.1 (9af7eec)
     RDKit          3D

 56 59  0  0  0  0  0  0  0  0999 V2000
   11.9339    0.0469   -4.3042 C   0  0  1  0  0  0  0  0  0  0  0  0
   10.8636   -0.9175   -4.4512 N   0  0  0  0  0  0  0  0  0  0  0  0
   11.0330   -1.6898   -5.6675 C   0  0  1  0  0  0  0  0  0  0  0  0
   10.7345   -1.7718   -3.2827 C   0  0  1  0  0  0  0  0  0  0  0  0
   10.1069   -1.0491   -2.0833 C   0  0  1  0  0  0  0  0  0  0  0  0
    8.9230   -0.1507   -2.4743 C   0  0  1  0  0  0  0  0  0  0  0  0
    7.9526   -0.7563   -3.3474 N   0  0  0  0  0  0  0  0  0  0  0  0
    6.7589   -1.7159   -2.7237 S   0  0  1  0  0  6  0  0  0  0  0  0
    6.2181   -1.0434   -1.5794 O   0  0  0  0  0  0  0  0  0  0  0  0
    5.8994   -2.0467   -3.8221 O   0  0  0  0  0  0  0  0  0  0  0  0
    7.5656   -3.2182   -2.1727 C   0  0  0  0  0  0  0  0  0  0  0  0
    7.6702   -3.5029   -0.8252 C   0  0  0  0  0  0  0  0  0  0  0  0
    8.3665   -4.6244   -0.4164 C   0  0  0  0  0  0  0  0  0  0  0  0
    8.9864   -5.4485   -1.3593 C   0  0  0  0  0  0  0  0  0  0  0  0
    8.8327   -5.1725   -2.7196 C   0  0  0  0  0  0  0  0  0  0  0  0
    8.1170   -4.0610   -3.1197 C   0  0  0  0  0  0  0  0  0  0  0  0
    9.7160   -6.5425   -0.9193 N   0  0  0  0  0  0  0  0  0  0  0  0
   10.7912   -7.1174   -1.5267 C   0  0  0  0  0  0  0  0  0  0  0  0
   11.3010   -8.1802   -0.8933 N   0  0  0  0  0  0  0  0  0  0  0  0
   12.3495   -8.7511   -1.4588 C   0  0  0  0  0  0  0  0  0  0  0  0
   12.9300   -8.2823   -2.6267 C   0  0  0  0  0  0  0  0  0  0  0  0
   12.3430   -7.1448   -3.1883 C   0  0  0  0  0  0  0  0  0  0  0  0
   11.2663   -6.5800   -2.6410 N   0  0  0  0  0  0  0  0  0  0  0  0
   12.8424   -6.4657   -4.3590 C   0  0  0  0  0  0  0  0  0  0  0  0
   12.3993   -5.2606   -4.9015 C   0  0  0  0  0  0  0  0  0  0  0  0
   13.1137   -4.9034   -5.9701 N   0  0  0  0  0  0  0  0  0  0  0  0
   14.0152   -5.8607   -6.1384 C   0  0  0  0  0  0  0  0  0  0  0  0
   13.8803   -6.8453   -5.1552 N   0  0  0  0  0  0  0  0  0  0  0  0
   14.6389   -7.9225   -5.0657 N   0  0  0  0  0  0  0  0  0  0  0  0
   15.5709   -8.0613   -5.9640 C   0  0  0  0  0  0  0  0  0  0  0  0
   15.8098   -7.1426   -7.0054 C   0  0  0  0  0  0  0  0  0  0  0  0
   15.0211   -6.0244   -7.0946 C   0  0  0  0  0  0  0  0  0  0  0  0
   11.9417    0.7031   -5.1732 H   0  0  0  0  0  0  0  0  0  0  0  0
   11.7635    0.6530   -3.4173 H   0  0  0  0  0  0  0  0  0  0  0  0
   12.9221   -0.4326   -4.2182 H   0  0  0  0  0  0  0  0  0  0  0  0
   11.0611   -1.0055   -6.5142 H   0  0  0  0  0  0  0  0  0  0  0  0
   11.9537   -2.2914   -5.6741 H   0  0  0  0  0  0  0  0  0  0  0  0
   10.1826   -2.3586   -5.7965 H   0  0  0  0  0  0  0  0  0  0  0  0
   10.0876   -2.6100   -3.5535 H   0  0  0  0  0  0  0  0  0  0  0  0
   11.7078   -2.1973   -2.9758 H   0  0  0  0  0  0  0  0  0  0  0  0
    9.7805   -1.8090   -1.3709 H   0  0  0  0  0  0  0  0  0  0  0  0
   10.8492   -0.4250   -1.5833 H   0  0  0  0  0  0  0  0  0  0  0  0
    8.3724    0.1487   -1.5803 H   0  0  0  0  0  0  0  0  0  0  0  0
    9.2979    0.7442   -2.9771 H   0  0  0  0  0  0  0  0  0  0  0  0
    8.3252   -1.0647   -4.2300 H   0  0  0  0  0  0  0  0  0  0  0  0
    7.2046   -2.8343   -0.1185 H   0  0  0  0  0  0  0  0  0  0  0  0
    8.4502   -4.8593    0.6347 H   0  0  0  0  0  0  0  0  0  0  0  0
    9.2828   -5.8284   -3.4449 H   0  0  0  0  0  0  0  0  0  0  0  0
    7.9597   -3.8449   -4.1654 H   0  0  0  0  0  0  0  0  0  0  0  0
    9.5387   -6.8831    0.0155 H   0  0  0  0  0  0  0  0  0  0  0  0
   12.7427   -9.6170   -0.9417 H   0  0  0  0  0  0  0  0  0  0  0  0
   13.7879   -8.7519   -3.0735 H   0  0  0  0  0  0  0  0  0  0  0  0
   11.5937   -4.6573   -4.5338 H   0  0  0  0  0  0  0  0  0  0  0  0
   16.1694   -8.9534   -5.8580 H   0  0  0  0  0  0  0  0  0  0  0  0
   16.6017   -7.3291   -7.7116 H   0  0  0  0  0  0  0  0  0  0  0  0
   15.1426   -5.2780   -7.8623 H   0  0  0  0  0  0  0  0  0  0  0  0
  1  2  1  0
  2  3  1  0
  2  4  1  0
  4  5  1  0
  5  6  1  0
  6  7  1  0
  8  7  1  6
  8  9  2  0
  8 10  2  0
  8 11  1  0
 11 12  2  0
 12 13  1  0
 13 14  2  0
 14 15  1  0
 15 16  2  0
 14 17  1  0
 17 18  1  0
 18 19  2  0
 19 20  1  0
 20 21  2  0
 21 22  1  0
 22 23  2  0
 22 24  1  0
 24 25  2  0
 25 26  1  0
 26 27  2  0
 27 28  1  0
 28 29  1  0
 29 30  2  0
 30 31  1  0
 31 32  2  0
 16 11  1  0
 23 18  1  0
 28 24  1  0
 32 27  1  0
  1 33  1  6
  1 34  1  0
  1 35  1  0
  3 36  1  6
  3 37  1  0
  3 38  1  0
  4 39  1  6
  4 40  1  0
  5 41  1  1
  5 42  1  0
  6 43  1  1
  6 44  1  0
  7 45  1  0
 12 46  1  0
 13 47  1  0
 15 48  1  0
 16 49  1  0
 17 50  1  0
 20 51  1  0
 21 52  1  0
 25 53  1  0
 30 54  1  0
 31 55  1  0
 32 56  1  0
M  END
$$$$
