 energy: -91.992352140362 gnorm: 0.000024483901 xtb: 6.5.1 (9af7eec)
     RDKit          3D

 56 59  0  0  0  0  0  0  0  0999 V2000
    5.8291   -1.3883   -1.1390 C   0  0  1  0  0  0  0  0  0  0  0  0
    6.5596   -0.7942   -0.0369 N   0  0  0  0  0  0  0  0  0  0  0  0
    5.8612    0.3740    0.4580 C   0  0  1  0  0  0  0  0  0  0  0  0
    6.8189   -1.7660    1.0141 C   0  0  1  0  0  0  0  0  0  0  0  0
    7.9306   -1.3210    1.9649 C   0  0  1  0  0  0  0  0  0  0  0  0
    9.2576   -1.1649    1.2249 C   0  0  1  0  0  0  0  0  0  0  0  0
    9.7641   -2.4484    0.7894 N   0  0  0  0  0  0  0  0  0  0  0  0
   10.8292   -2.4300   -0.5058 S   0  0  1  0  0  6  0  0  0  0  0  0
   11.5328   -1.1775   -0.5580 O   0  0  0  0  0  0  0  0  0  0  0  0
   11.5860   -3.6458   -0.4167 O   0  0  0  0  0  0  0  0  0  0  0  0
    9.6841   -2.5206   -1.8631 C   0  0  0  0  0  0  0  0  0  0  0  0
    9.1962   -3.7538   -2.2516 C   0  0  0  0  0  0  0  0  0  0  0  0
    8.2578   -3.8248   -3.2613 C   0  0  0  0  0  0  0  0  0  0  0  0
    7.7842   -2.6556   -3.8689 C   0  0  0  0  0  0  0  0  0  0  0  0
    8.2999   -1.4191   -3.4755 C   0  0  0  0  0  0  0  0  0  0  0  0
    9.2509   -1.3613   -2.4759 C   0  0  0  0  0  0  0  0  0  0  0  0
    6.8238   -2.7836   -4.8558 N   0  0  0  0  0  0  0  0  0  0  0  0
    6.0355   -1.8473   -5.4516 C   0  0  0  0  0  0  0  0  0  0  0  0
    5.2225   -2.3457   -6.3929 N   0  0  0  0  0  0  0  0  0  0  0  0
    4.4304   -1.4843   -7.0047 C   0  0  0  0  0  0  0  0  0  0  0  0
    4.4095   -0.1348   -6.6988 C   0  0  0  0  0  0  0  0  0  0  0  0
    5.2830    0.2848   -5.6874 C   0  0  0  0  0  0  0  0  0  0  0  0
    6.0950   -0.5766   -5.0783 N   0  0  0  0  0  0  0  0  0  0  0  0
    5.3352    1.6627   -5.2608 C   0  0  0  0  0  0  0  0  0  0  0  0
    4.7226    2.7985   -5.7873 C   0  0  0  0  0  0  0  0  0  0  0  0
    5.0265    3.8970   -5.0938 N   0  0  0  0  0  0  0  0  0  0  0  0
    5.8287    3.4977   -4.1169 C   0  0  0  0  0  0  0  0  0  0  0  0
    6.0454    2.1225   -4.1887 N   0  0  0  0  0  0  0  0  0  0  0  0
    6.7891    1.4386   -3.3449 N   0  0  0  0  0  0  0  0  0  0  0  0
    7.3624    2.1037   -2.3855 C   0  0  0  0  0  0  0  0  0  0  0  0
    7.2294    3.4969   -2.2055 C   0  0  0  0  0  0  0  0  0  0  0  0
    6.4512    4.2059   -3.0830 C   0  0  0  0  0  0  0  0  0  0  0  0
    5.7877   -0.6771   -1.9628 H   0  0  0  0  0  0  0  0  0  0  0  0
    6.3564   -2.2756   -1.4821 H   0  0  0  0  0  0  0  0  0  0  0  0
    4.8022   -1.6742   -0.8597 H   0  0  0  0  0  0  0  0  0  0  0  0
    5.6566    1.0444   -0.3753 H   0  0  0  0  0  0  0  0  0  0  0  0
    4.9034    0.1200    0.9415 H   0  0  0  0  0  0  0  0  0  0  0  0
    6.4824    0.9030    1.1777 H   0  0  0  0  0  0  0  0  0  0  0  0
    5.9047   -1.9828    1.5969 H   0  0  0  0  0  0  0  0  0  0  0  0
    7.1477   -2.6910    0.5353 H   0  0  0  0  0  0  0  0  0  0  0  0
    7.6756   -0.3739    2.4396 H   0  0  0  0  0  0  0  0  0  0  0  0
    8.0380   -2.0715    2.7502 H   0  0  0  0  0  0  0  0  0  0  0  0
    9.0919   -0.5788    0.3207 H   0  0  0  0  0  0  0  0  0  0  0  0
    9.9876   -0.6376    1.8525 H   0  0  0  0  0  0  0  0  0  0  0  0
   10.1113   -3.0322    1.5348 H   0  0  0  0  0  0  0  0  0  0  0  0
    9.5699   -4.6387   -1.7620 H   0  0  0  0  0  0  0  0  0  0  0  0
    7.8751   -4.7841   -3.5794 H   0  0  0  0  0  0  0  0  0  0  0  0
    7.9258   -0.5214   -3.9348 H   0  0  0  0  0  0  0  0  0  0  0  0
    9.6824   -0.4219   -2.1710 H   0  0  0  0  0  0  0  0  0  0  0  0
    6.6220   -3.7225   -5.1753 H   0  0  0  0  0  0  0  0  0  0  0  0
    3.7851   -1.9025   -7.7667 H   0  0  0  0  0  0  0  0  0  0  0  0
    3.7512    0.5505   -7.2024 H   0  0  0  0  0  0  0  0  0  0  0  0
    4.0810    2.8628   -6.6441 H   0  0  0  0  0  0  0  0  0  0  0  0
    7.9553    1.5013   -1.7147 H   0  0  0  0  0  0  0  0  0  0  0  0
    7.7362    3.9818   -1.3874 H   0  0  0  0  0  0  0  0  0  0  0  0
    6.2992    5.2704   -3.0107 H   0  0  0  0  0  0  0  0  0  0  0  0
  1  2  1  0
  2  3  1  0
  2  4  1  0
  4  5  1  0
  5  6  1  0
  6  7  1  0
  8  7  1  1
  8  9  2  0
  8 10  2  0
  8 11  1  0
 11 12  2  0
 12 13  1  0
 13 14  2  0
 14 15  1  0
 15 16  2  0
 14 17  1  0
 17 18  1  0
 18 19  2  0
 19 20  1  0
 20 21  2  0
 21 22  1  0
 22 23  2  0
 22 24  1  0
 24 25  2  0
 25 26  1  0
 26 27  2  0
 27 28  1  0
 28 29  1  0
 29 30  2  0
 30 31  1  0
 31 32  2  0
 16 11  1  0
 23 18  1  0
 28 24  1  0
 32 27  1  0
  1 33  1  6
  1 34  1  0
  1 35  1  0
  3 36  1  6
  3 37  1  0
  3 38  1  0
  4 39  1  1
  4 40  1  0
  5 41  1  1
  5 42  1  0
  6 43  1  6
  6 44  1  0
  7 45  1  0
 12 46  1  0
 13 47  1  0
 15 48  1  0
 16 49  1  0
 17 50  1  0
 20 51  1  0
 21 52  1  0
 25 53  1  0
 30 54  1  0
 31 55  1  0
 32 56  1  0
M  END
$$$$
