 energy: -91.992923603208 gnorm: 0.000041707121 xtb: 6.5.1 (9af7eec)
     RDKit          3D

 56 59  0  0  0  0  0  0  0  0999 V2000
    4.6412   -2.5871    1.1672 C   0  0  1  0  0  0  0  0  0  0  0  0
    5.1830   -1.8035    0.0729 N   0  0  0  0  0  0  0  0  0  0  0  0
    5.5832   -2.6621   -1.0249 C   0  0  1  0  0  0  0  0  0  0  0  0
    4.2545   -0.7803   -0.3817 C   0  0  1  0  0  0  0  0  0  0  0  0
    4.0863    0.3557    0.6280 C   0  0  1  0  0  0  0  0  0  0  0  0
    5.4319    1.0169    0.9334 C   0  0  1  0  0  0  0  0  0  0  0  0
    5.4353    1.8564    2.1127 N   0  0  0  0  0  0  0  0  0  0  0  0
    5.4835    1.0713    3.5949 S   0  0  1  0  0  6  0  0  0  0  0  0
    5.2970    2.0949    4.5814 O   0  0  0  0  0  0  0  0  0  0  0  0
    4.6006   -0.0661    3.6332 O   0  0  0  0  0  0  0  0  0  0  0  0
    7.1676    0.5020    3.5808 C   0  0  0  0  0  0  0  0  0  0  0  0
    8.1884    1.3769    3.9011 C   0  0  0  0  0  0  0  0  0  0  0  0
    9.5000    0.9584    3.7945 C   0  0  0  0  0  0  0  0  0  0  0  0
    9.7951   -0.3330    3.3431 C   0  0  0  0  0  0  0  0  0  0  0  0
    8.7489   -1.2124    3.0567 C   0  0  0  0  0  0  0  0  0  0  0  0
    7.4401   -0.7905    3.1762 C   0  0  0  0  0  0  0  0  0  0  0  0
   11.1232   -0.7014    3.2166 N   0  0  0  0  0  0  0  0  0  0  0  0
   11.6621   -1.7361    2.5125 C   0  0  0  0  0  0  0  0  0  0  0  0
   12.9947   -1.8384    2.6001 N   0  0  0  0  0  0  0  0  0  0  0  0
   13.5520   -2.8298    1.9287 C   0  0  0  0  0  0  0  0  0  0  0  0
   12.8290   -3.7223    1.1525 C   0  0  0  0  0  0  0  0  0  0  0  0
   11.4479   -3.5134    1.1069 C   0  0  0  0  0  0  0  0  0  0  0  0
   10.8761   -2.5256    1.7965 N   0  0  0  0  0  0  0  0  0  0  0  0
   10.5283   -4.3042    0.3255 C   0  0  0  0  0  0  0  0  0  0  0  0
    9.1643   -4.0905    0.1277 C   0  0  0  0  0  0  0  0  0  0  0  0
    8.6256   -5.0202   -0.6628 N   0  0  0  0  0  0  0  0  0  0  0  0
    9.6159   -5.8399   -0.9854 C   0  0  0  0  0  0  0  0  0  0  0  0
   10.8129   -5.4253   -0.3938 N   0  0  0  0  0  0  0  0  0  0  0  0
   11.9708   -6.0444   -0.5349 N   0  0  0  0  0  0  0  0  0  0  0  0
   11.9796   -7.1123   -1.2797 C   0  0  0  0  0  0  0  0  0  0  0  0
   10.8436   -7.6331   -1.9305 C   0  0  0  0  0  0  0  0  0  0  0  0
    9.6427   -6.9880   -1.7816 C   0  0  0  0  0  0  0  0  0  0  0  0
    5.3752   -3.3386    1.4565 H   0  0  0  0  0  0  0  0  0  0  0  0
    4.4419   -1.9457    2.0231 H   0  0  0  0  0  0  0  0  0  0  0  0
    3.7086   -3.1039    0.8893 H   0  0  0  0  0  0  0  0  0  0  0  0
    6.2913   -3.4073   -0.6667 H   0  0  0  0  0  0  0  0  0  0  0  0
    4.7313   -3.1872   -1.4855 H   0  0  0  0  0  0  0  0  0  0  0  0
    6.0735   -2.0614   -1.7903 H   0  0  0  0  0  0  0  0  0  0  0  0
    4.6576   -0.3624   -1.3093 H   0  0  0  0  0  0  0  0  0  0  0  0
    3.2614   -1.2099   -0.6091 H   0  0  0  0  0  0  0  0  0  0  0  0
    3.3894    1.0913    0.2191 H   0  0  0  0  0  0  0  0  0  0  0  0
    3.6693   -0.0229    1.5598 H   0  0  0  0  0  0  0  0  0  0  0  0
    6.1754    0.2360    1.1026 H   0  0  0  0  0  0  0  0  0  0  0  0
    5.7610    1.6253    0.0849 H   0  0  0  0  0  0  0  0  0  0  0  0
    4.7199    2.5682    2.1129 H   0  0  0  0  0  0  0  0  0  0  0  0
    7.9360    2.3712    4.2323 H   0  0  0  0  0  0  0  0  0  0  0  0
   10.3063    1.6322    4.0457 H   0  0  0  0  0  0  0  0  0  0  0  0
    8.9784   -2.2124    2.7340 H   0  0  0  0  0  0  0  0  0  0  0  0
    6.6193   -1.4559    2.9647 H   0  0  0  0  0  0  0  0  0  0  0  0
   11.8156   -0.0875    3.6245 H   0  0  0  0  0  0  0  0  0  0  0  0
   14.6286   -2.9035    2.0166 H   0  0  0  0  0  0  0  0  0  0  0  0
   13.2960   -4.5245    0.6099 H   0  0  0  0  0  0  0  0  0  0  0  0
    8.5783   -3.2863    0.5264 H   0  0  0  0  0  0  0  0  0  0  0  0
   12.9434   -7.5896   -1.3713 H   0  0  0  0  0  0  0  0  0  0  0  0
   10.9324   -8.5233   -2.5309 H   0  0  0  0  0  0  0  0  0  0  0  0
    8.7314   -7.3255   -2.2472 H   0  0  0  0  0  0  0  0  0  0  0  0
  1  2  1  0
  2  3  1  0
  2  4  1  0
  4  5  1  0
  5  6  1  0
  6  7  1  0
  8  7  1  6
  8  9  2  0
  8 10  2  0
  8 11  1  0
 11 12  2  0
 12 13  1  0
 13 14  2  0
 14 15  1  0
 15 16  2  0
 14 17  1  0
 17 18  1  0
 18 19  2  0
 19 20  1  0
 20 21  2  0
 21 22  1  0
 22 23  2  0
 22 24  1  0
 24 25  2  0
 25 26  1  0
 26 27  2  0
 27 28  1  0
 28 29  1  0
 29 30  2  0
 30 31  1  0
 31 32  2  0
 16 11  1  0
 23 18  1  0
 28 24  1  0
 32 27  1  0
  1 33  1  1
  1 34  1  0
  1 35  1  0
  3 36  1  1
  3 37  1  0
  3 38  1  0
  4 39  1  6
  4 40  1  0
  5 41  1  6
  5 42  1  0
  6 43  1  1
  6 44  1  0
  7 45  1  0
 12 46  1  0
 13 47  1  0
 15 48  1  0
 16 49  1  0
 17 50  1  0
 20 51  1  0
 21 52  1  0
 25 53  1  0
 30 54  1  0
 31 55  1  0
 32 56  1  0
M  END
$$$$
