-24.28140111
     RDKit          3D

 14 13  0  0  1  0  0  0  0  0999 V2000
   -0.1867   -1.7055   -0.6803 N   0  0  0  0  0  0  0  0  0  0  0  0
    0.1515   -0.3328   -0.9962 C   0  0  2  0  0  0  0  0  0  0  0  0
    1.2688    0.2067   -0.1096 C   0  0  0  0  0  0  0  0  0  0  0  0
    1.8459   -0.7267    0.6472 O   0  0  0  0  0  0  0  0  0  0  0  0
    1.6205    1.3538   -0.1153 O   0  0  0  0  0  0  0  0  0  0  0  0
   -1.0836    0.5554   -0.8107 C   0  0  1  0  0  0  0  0  0  0  0  0
   -1.7342    0.3957    0.8851 S   0  0  0  0  0  0  0  0  0  0  0  0
    0.6405   -2.2594   -0.4993 H   0  0  0  0  0  0  0  0  0  0  0  0
   -0.7146   -2.1302   -1.4334 H   0  0  0  0  0  0  0  0  0  0  0  0
    0.5086   -0.1905   -2.0353 H   0  0  0  0  0  0  0  0  0  0  0  0
    2.5277   -0.3255    1.2097 H   0  0  0  0  0  0  0  0  0  0  0  0
   -0.8236    1.6027   -0.9519 H   0  0  0  0  0  0  0  0  0  0  0  0
   -1.8700    0.2690   -1.5097 H   0  0  0  0  0  0  0  0  0  0  0  0
   -1.5473   -0.9230    0.9148 H   0  0  0  0  0  0  0  0  0  0  0  0
  1  8  1  0
  2 10  1  6
  2  6  1  0
  2  1  1  0
  2  3  1  0
  3  4  1  0
  4 11  1  0
  5  3  2  0
  6  7  1  0
  7 14  1  0
  9  1  1  0
  6 12  1  6
 13  6  1  0
M  END
$$$$
