-24.28083404
     RDKit          3D

 14 13  0  0  1  0  0  0  0  0999 V2000
   -0.0237   -1.7180    0.1051 N   0  0  0  0  0  0  0  0  0  0  0  0
    0.1829   -0.3452   -0.2924 C   0  0  2  0  0  0  0  0  0  0  0  0
    1.6286    0.0414   -0.0059 C   0  0  0  0  0  0  0  0  0  0  0  0
    1.8165    1.3641    0.0167 O   0  0  0  0  0  0  0  0  0  0  0  0
    2.5236   -0.7454    0.1323 O   0  0  0  0  0  0  0  0  0  0  0  0
   -0.7972    0.5651    0.4513 C   0  0  1  0  0  0  0  0  0  0  0  0
   -2.5085    0.3510   -0.1414 S   0  0  0  0  0  0  0  0  0  0  0  0
    0.8039   -2.2731   -0.0771 H   0  0  0  0  0  0  0  0  0  0  0  0
   -0.8213   -2.1266   -0.3650 H   0  0  0  0  0  0  0  0  0  0  0  0
    0.0606   -0.1699   -1.3832 H   0  0  0  0  0  0  0  0  0  0  0  0
    2.7533    1.5657    0.1748 H   0  0  0  0  0  0  0  0  0  0  0  0
   -0.8221    0.2860    1.5032 H   0  0  0  0  0  0  0  0  0  0  0  0
   -0.5262    1.6135    0.3454 H   0  0  0  0  0  0  0  0  0  0  0  0
   -2.3093    0.8803   -1.3495 H   0  0  0  0  0  0  0  0  0  0  0  0
  2 10  1  6
  2  3  1  0
  2  1  1  0
  2  6  1  0
  3  4  1  0
  3  5  2  0
  4 11  1  0
  6 12  1  1
  7  6  1  0
  8  1  1  0
  9  1  1  0
 13  6  1  0
 14  7  1  0
M  END
$$$$
