-24.28462906
     RDKit          3D

 14 13  0  0  1  0  0  0  0  0999 V2000
   -0.1397   -1.8339   -0.7039 N   0  0  0  0  0  0  0  0  0  0  0  0
    0.1634   -0.4424   -0.9691 C   0  0  2  0  0  0  0  0  0  0  0  0
    1.2802    0.0913   -0.0695 C   0  0  0  0  0  0  0  0  0  0  0  0
    1.6132    1.3496   -0.3598 O   0  0  0  0  0  0  0  0  0  0  0  0
    1.8063   -0.5523    0.7969 O   0  0  0  0  0  0  0  0  0  0  0  0
   -1.0922    0.4223   -0.8040 C   0  0  1  0  0  0  0  0  0  0  0  0
   -1.7243    0.4516    0.9084 S   0  0  0  0  0  0  0  0  0  0  0  0
   -0.1774   -1.9793    0.3021 H   0  0  0  0  0  0  0  0  0  0  0  0
    0.6016   -2.4308   -1.0525 H   0  0  0  0  0  0  0  0  0  0  0  0
    0.4936   -0.3389   -2.0100 H   0  0  0  0  0  0  0  0  0  0  0  0
    2.3020    1.6684    0.2457 H   0  0  0  0  0  0  0  0  0  0  0  0
   -0.8676    1.4589   -1.0494 H   0  0  0  0  0  0  0  0  0  0  0  0
   -1.8842    0.0484   -1.4499 H   0  0  0  0  0  0  0  0  0  0  0  0
   -2.1448   -0.8098    0.9186 H   0  0  0  0  0  0  0  0  0  0  0  0
  1  8  1  0
  2 10  1  6
  2  6  1  0
  2  1  1  0
  2  3  1  0
  3  5  2  0
  4  3  1  0
  4 11  1  0
  6  7  1  0
  7 14  1  0
  9  1  1  0
  6 12  1  6
 13  6  1  0
M  END
$$$$
