ACONF/B_G/struc.xyz
     RDKit          3D

 14 13  0  0  0  0  0  0  0  0999 V2000
    0.5910    1.4380   -0.5120 C   0  0  2  0  0  0  0  0  0  0  0  0
   -0.3440    1.9970   -0.5560 H   0  0  0  0  0  0  0  0  0  0  0  0
    0.7040    0.9060   -1.4550 H   0  0  0  0  0  0  0  0  0  0  0  0
    1.4060    2.1560   -0.4410 H   0  0  0  0  0  0  0  0  0  0  0  0
    0.5910    0.4840    0.6760 C   0  0  1  0  0  0  0  0  0  0  0  0
    1.5210   -0.0900    0.6860 H   0  0  0  0  0  0  0  0  0  0  0  0
    0.5760    1.0630    1.6010 H   0  0  0  0  0  0  0  0  0  0  0  0
   -0.5910   -0.4840    0.6760 C   0  0  2  0  0  0  0  0  0  0  0  0
   -1.5210    0.0900    0.6860 H   0  0  0  0  0  0  0  0  0  0  0  0
   -0.5760   -1.0630    1.6010 H   0  0  0  0  0  0  0  0  0  0  0  0
   -0.5910   -1.4380   -0.5120 C   0  0  1  0  0  0  0  0  0  0  0  0
    0.3440   -1.9970   -0.5560 H   0  0  0  0  0  0  0  0  0  0  0  0
   -1.4060   -2.1560   -0.4410 H   0  0  0  0  0  0  0  0  0  0  0  0
   -0.7040   -0.9060   -1.4550 H   0  0  0  0  0  0  0  0  0  0  0  0
  1  3  1  6
  1  2  1  0
  1  4  1  0
  1  5  1  0
  5  8  1  0
  5  6  1  1
  5  7  1  0
  8 11  1  0
  8  9  1  1
  8 10  1  0
 11 14  1  6
 11 12  1  0
 11 13  1  0
M  END
$$$$
