ACONF/P_TT/struc.xyz
     RDKit          3D

 17 16  0  0  0  0  0  0  0  0999 V2000
    0.0000    2.5330    0.3020 C   0  0  2  0  0  0  0  0  0  0  0  0
    0.0000    1.2720   -0.5520 C   0  0  1  0  0  0  0  0  0  0  0  0
    0.0000    0.0000    0.2850 C   0  0  2  0  0  0  0  0  0  0  0  0
    0.0000   -1.2720   -0.5520 C   0  0  2  0  0  0  0  0  0  0  0  0
    0.0000   -2.5330    0.3020 C   0  0  1  0  0  0  0  0  0  0  0  0
    0.0000    3.4340   -0.3100 H   0  0  0  0  0  0  0  0  0  0  0  0
    0.8740   -1.2690   -1.2070 H   0  0  0  0  0  0  0  0  0  0  0  0
   -0.8740   -1.2690   -1.2070 H   0  0  0  0  0  0  0  0  0  0  0  0
    0.8800    2.5650    0.9440 H   0  0  0  0  0  0  0  0  0  0  0  0
   -0.8800    2.5650    0.9440 H   0  0  0  0  0  0  0  0  0  0  0  0
   -0.8750    0.0000    0.9420 H   0  0  0  0  0  0  0  0  0  0  0  0
    0.8750    0.0000    0.9420 H   0  0  0  0  0  0  0  0  0  0  0  0
   -0.8740    1.2690   -1.2070 H   0  0  0  0  0  0  0  0  0  0  0  0
    0.8740    1.2690   -1.2070 H   0  0  0  0  0  0  0  0  0  0  0  0
    0.0000   -3.4340   -0.3100 H   0  0  0  0  0  0  0  0  0  0  0  0
    0.8800   -2.5650    0.9440 H   0  0  0  0  0  0  0  0  0  0  0  0
   -0.8800   -2.5650    0.9440 H   0  0  0  0  0  0  0  0  0  0  0  0
  1  2  1  0
  1  6  1  6
  1 10  1  0
  1  9  1  0
  2 13  1  6
  2 14  1  0
  2  3  1  0
  3  4  1  0
  3 11  1  1
  3 12  1  0
  4  7  1  6
  4  8  1  0
  4  5  1  0
  5 15  1  6
  5 17  1  0
  5 16  1  0
M  END
$$$$
