Coordinates from ORCA-job xah
     RDKit          3D

 26 25  0  0  0  0  0  0  0  0999 V2000
    1.0000   -0.2090   -0.4390 N   0  0  0  0  0  0  0  0  0  0  0  0
    0.1260    0.4740    0.4800 C   0  0  2  0  0  0  0  0  0  0  0  0
   -1.3220   -0.0310    0.5050 C   0  0  0  0  0  0  0  0  0  0  0  0
   -2.1160    0.4410    1.3110 O   0  0  0  0  0  0  0  0  0  0  0  0
    0.1090    1.9640    0.1480 C   0  0  2  0  0  0  0  0  0  0  0  0
   -0.2470    2.0220   -1.2360 O   0  0  0  0  0  0  0  0  0  0  0  0
    1.4430    2.6340    0.4080 C   0  0  2  0  0  0  0  0  0  0  0  0
    1.0910    0.1890   -1.3630 H   0  0  0  0  0  0  0  0  0  0  0  0
    0.4920    0.3700    1.5010 H   0  0  0  0  0  0  0  0  0  0  0  0
   -0.6740    2.4130    0.7620 H   0  0  0  0  0  0  0  0  0  0  0  0
   -0.2710    2.9480   -1.4960 H   0  0  0  0  0  0  0  0  0  0  0  0
    1.4020    3.6840    0.1170 H   0  0  0  0  0  0  0  0  0  0  0  0
    2.2360    2.1500   -0.1590 H   0  0  0  0  0  0  0  0  0  0  0  0
    1.6910    2.5930    1.4680 H   0  0  0  0  0  0  0  0  0  0  0  0
   -1.6140   -1.0090   -0.3770 N   0  0  0  0  0  0  0  0  0  0  0  0
   -0.9060   -1.2440   -1.0520 H   0  0  0  0  0  0  0  0  0  0  0  0
   -2.9590   -1.5250   -0.5170 C   0  0  1  0  0  0  0  0  0  0  0  0
   -2.9300   -2.5970   -0.6950 H   0  0  0  0  0  0  0  0  0  0  0  0
   -3.4880   -1.3230    0.4090 H   0  0  0  0  0  0  0  0  0  0  0  0
   -3.4910   -1.0400   -1.3340 H   0  0  0  0  0  0  0  0  0  0  0  0
    1.7030   -1.3630   -0.2130 C   0  0  0  0  0  0  0  0  0  0  0  0
    2.3850   -1.8730   -1.0910 O   0  0  0  0  0  0  0  0  0  0  0  0
    1.5770   -1.9520    1.1710 C   0  0  2  0  0  0  0  0  0  0  0  0
    0.5330   -2.1070    1.4410 H   0  0  0  0  0  0  0  0  0  0  0  0
    2.0210   -1.2890    1.9130 H   0  0  0  0  0  0  0  0  0  0  0  0
    2.1020   -2.9000    1.1820 H   0  0  0  0  0  0  0  0  0  0  0  0
  1  8  1  0
  1 21  1  0
  1  2  1  0
  2  5  1  0
  2  3  1  0
  2  9  1  1
  3 15  1  0
  3  4  1  0
  5  6  1  0
  5  7  1  0
  5 10  1  1
  6 11  1  0
  7 13  1  6
  7 12  1  0
  7 14  1  0
 15 16  1  0
 15 17  1  0
 17 20  1  6
 17 18  1  0
 17 19  1  0
 21 22  1  0
 21 23  1  0
 23 26  1  6
 23 24  1  0
 23 25  1  0
M  END
$$$$
