Coordinates from ORCA-job xah
     RDKit          3D

 36 37  0  0  0  0  0  0  0  0999 V2000
   -2.0230   -0.9470    0.0080 N   0  0  0  0  0  0  0  0  0  0  0  0
   -1.6270   -0.0540    1.0680 C   0  0  2  0  0  0  0  0  0  0  0  0
   -1.1920    1.3400    0.6120 C   0  0  0  0  0  0  0  0  0  0  0  0
   -1.0190    2.2280    1.4430 O   0  0  0  0  0  0  0  0  0  0  0  0
   -0.4740   -0.6950    1.8660 C   0  0  1  0  0  0  0  0  0  0  0  0
   -1.3300   -1.6020   -0.3310 H   0  0  0  0  0  0  0  0  0  0  0  0
   -2.4570    0.1070    1.7560 H   0  0  0  0  0  0  0  0  0  0  0  0
   -0.1630    0.0240    2.6240 H   0  0  0  0  0  0  0  0  0  0  0  0
   -0.8670   -1.5760    2.3770 H   0  0  0  0  0  0  0  0  0  0  0  0
   -3.2230   -0.9700   -0.6530 C   0  0  0  0  0  0  0  0  0  0  0  0
   -3.4190   -1.7430   -1.5810 O   0  0  0  0  0  0  0  0  0  0  0  0
   -1.0110    1.4910   -0.7160 N   0  0  0  0  0  0  0  0  0  0  0  0
   -1.0990    0.6660   -1.2850 H   0  0  0  0  0  0  0  0  0  0  0  0
   -0.4730    2.7100   -1.2800 C   0  0  1  0  0  0  0  0  0  0  0  0
   -0.9740    2.9390   -2.2180 H   0  0  0  0  0  0  0  0  0  0  0  0
   -0.6500    3.5100   -0.5680 H   0  0  0  0  0  0  0  0  0  0  0  0
    0.6000    2.6230   -1.4520 H   0  0  0  0  0  0  0  0  0  0  0  0
   -4.2650    0.0030   -0.1600 C   0  0  2  0  0  0  0  0  0  0  0  0
   -3.8800    1.0220   -0.1490 H   0  0  0  0  0  0  0  0  0  0  0  0
   -4.5720   -0.2490    0.8540 H   0  0  0  0  0  0  0  0  0  0  0  0
   -5.1240   -0.0580   -0.8190 H   0  0  0  0  0  0  0  0  0  0  0  0
    0.6730   -1.0850    0.9950 C   0  0  1  0  0  0  0  0  0  0  0  0
    0.9120   -2.3490    0.4870 C   0  0  0  0  0  0  0  0  0  0  0  0
    1.7000   -0.2400    0.4650 C   0  0  0  0  0  0  0  0  0  0  0  0
    0.3810   -3.2700    0.6690 H   0  0  0  0  0  0  0  0  0  0  0  0
    2.5300   -1.0490   -0.3570 C   0  0  0  0  0  0  0  0  0  0  0  0
    2.0180    1.1210    0.6230 C   0  0  0  0  0  0  0  0  0  0  0  0
    2.4100   -3.1200   -0.7950 H   0  0  0  0  0  0  0  0  0  0  0  0
    3.1240    1.6240   -0.0430 C   0  0  0  0  0  0  0  0  0  0  0  0
    1.4080    1.7630    1.2450 H   0  0  0  0  0  0  0  0  0  0  0  0
    2.0210   -2.3240   -0.3210 N   0  0  0  0  0  0  0  0  0  0  0  0
    3.6430   -0.5400   -1.0320 C   0  0  0  0  0  0  0  0  0  0  0  0
    3.9260    0.8060   -0.8650 C   0  0  0  0  0  0  0  0  0  0  0  0
    4.2630   -1.1700   -1.6560 H   0  0  0  0  0  0  0  0  0  0  0  0
    4.7810    1.2350   -1.3690 H   0  0  0  0  0  0  0  0  0  0  0  0
    3.3840    2.6680    0.0720 H   0  0  0  0  0  0  0  0  0  0  0  0
  1 10  1  0
  1  6  1  0
  1  2  1  0
  2  3  1  0
  2  7  1  1
  2  5  1  0
  3 12  1  0
  3  4  1  0
  5 22  1  0
  5  9  1  1
  5  8  1  0
 10 11  1  0
 10 18  1  0
 12 13  1  0
 12 14  1  0
 14 15  1  6
 14 17  1  0
 14 16  1  0
 18 21  1  6
 18 19  1  0
 18 20  1  0
 22 24  1  0
 22 23  1  6
 23 31  1  0
 23 25  1  0
 24 26  1  0
 24 27  1  0
 26 32  1  0
 26 31  1  0
 27 29  1  0
 27 30  1  0
 28 31  1  0
 29 33  1  0
 29 36  1  0
 32 34  1  0
 32 33  1  0
 33 35  1  0
M  END
$$$$
