Coordinates from ORCA-job xae
     RDKit          3D

 31 30  0  0  0  0  0  0  0  0999 V2000
   -0.1090    0.9990   -0.5910 N   0  0  0  0  0  0  0  0  0  0  0  0
   -0.2570   -0.3180    0.0120 C   0  0  2  0  0  0  0  0  0  0  0  0
    1.0320   -1.1080   -0.2470 C   0  0  0  0  0  0  0  0  0  0  0  0
    1.1490   -1.9020   -1.1750 O   0  0  0  0  0  0  0  0  0  0  0  0
   -1.4890   -1.0390   -0.5160 C   0  0  2  0  0  0  0  0  0  0  0  0
   -2.7430   -0.1620   -0.4350 C   0  0  1  0  0  0  0  0  0  0  0  0
   -1.6660   -2.3540    0.2370 C   0  0  1  0  0  0  0  0  0  0  0  0
   -3.0490    0.3830    0.9560 C   0  0  2  0  0  0  0  0  0  0  0  0
   -0.3380    1.1090   -1.5650 H   0  0  0  0  0  0  0  0  0  0  0  0
   -0.3520   -0.1470    1.0850 H   0  0  0  0  0  0  0  0  0  0  0  0
   -1.2970   -1.2800   -1.5650 H   0  0  0  0  0  0  0  0  0  0  0  0
   -2.6530    0.6760   -1.1290 H   0  0  0  0  0  0  0  0  0  0  0  0
   -3.5870   -0.7580   -0.7880 H   0  0  0  0  0  0  0  0  0  0  0  0
   -0.8160   -3.0120    0.0680 H   0  0  0  0  0  0  0  0  0  0  0  0
   -1.7640   -2.1850    1.3090 H   0  0  0  0  0  0  0  0  0  0  0  0
   -2.5650   -2.8690   -0.1050 H   0  0  0  0  0  0  0  0  0  0  0  0
   -3.1630   -0.4190    1.6850 H   0  0  0  0  0  0  0  0  0  0  0  0
   -3.9780    0.9520    0.9480 H   0  0  0  0  0  0  0  0  0  0  0  0
   -2.2600    1.0480    1.3070 H   0  0  0  0  0  0  0  0  0  0  0  0
    2.0220   -0.8060    0.6240 N   0  0  0  0  0  0  0  0  0  0  0  0
    1.8740    0.0090    1.2070 H   0  0  0  0  0  0  0  0  0  0  0  0
    3.3610   -1.3190    0.4270 C   0  0  1  0  0  0  0  0  0  0  0  0
    3.9230   -0.7280   -0.2970 H   0  0  0  0  0  0  0  0  0  0  0  0
    3.8910   -1.3180    1.3760 H   0  0  0  0  0  0  0  0  0  0  0  0
    3.2900   -2.3350    0.0530 H   0  0  0  0  0  0  0  0  0  0  0  0
    0.5120    2.0140    0.0600 C   0  0  0  0  0  0  0  0  0  0  0  0
    0.9570    1.8890    1.2010 O   0  0  0  0  0  0  0  0  0  0  0  0
    0.6030    3.3180   -0.6920 C   0  0  2  0  0  0  0  0  0  0  0  0
    1.6490    3.6090   -0.7560 H   0  0  0  0  0  0  0  0  0  0  0  0
    0.0820    4.0810   -0.1180 H   0  0  0  0  0  0  0  0  0  0  0  0
    0.1780    3.2680   -1.6910 H   0  0  0  0  0  0  0  0  0  0  0  0
  1  9  1  0
  1  2  1  0
  1 26  1  0
  2  5  1  0
  2  3  1  0
  2 10  1  1
  3  4  1  0
  3 20  1  0
  5 11  1  6
  5  6  1  0
  5  7  1  0
  6 12  1  6
  6 13  1  0
  6  8  1  0
  7 16  1  6
  7 14  1  0
  7 15  1  0
  8 18  1  6
  8 19  1  0
  8 17  1  0
 20 22  1  0
 20 21  1  0
 22 23  1  6
 22 25  1  0
 22 24  1  0
 26 28  1  0
 26 27  1  0
 28 31  1  6
 28 29  1  0
 28 30  1  0
M  END
$$$$
