Coordinates from ORCA-job xaq
     RDKit          3D

 31 30  0  0  0  0  0  0  0  0999 V2000
   -0.4090   -1.0350   -0.3190 N   0  0  0  0  0  0  0  0  0  0  0  0
    0.1350   -0.0130    0.5640 C   0  0  2  0  0  0  0  0  0  0  0  0
   -0.3220    1.3960    0.1450 C   0  0  0  0  0  0  0  0  0  0  0  0
    0.4650    2.2670   -0.2140 O   0  0  0  0  0  0  0  0  0  0  0  0
    1.6550   -0.1230    0.6330 C   0  0  2  0  0  0  0  0  0  0  0  0
    2.3060   -0.1330   -0.7550 C   0  0  2  0  0  0  0  0  0  0  0  0
    2.0600   -1.3470    1.4470 C   0  0  1  0  0  0  0  0  0  0  0  0
    3.7560    0.3350   -0.7120 C   0  0  2  0  0  0  0  0  0  0  0  0
    0.1510   -1.3310   -1.1000 H   0  0  0  0  0  0  0  0  0  0  0  0
   -0.2940   -0.2100    1.5500 H   0  0  0  0  0  0  0  0  0  0  0  0
    1.9930    0.7810    1.1430 H   0  0  0  0  0  0  0  0  0  0  0  0
    1.7490    0.5240   -1.4230 H   0  0  0  0  0  0  0  0  0  0  0  0
    2.2700   -1.1470   -1.1680 H   0  0  0  0  0  0  0  0  0  0  0  0
    1.6970   -1.2780    2.4720 H   0  0  0  0  0  0  0  0  0  0  0  0
    1.6450   -2.2540    1.0050 H   0  0  0  0  0  0  0  0  0  0  0  0
    3.1420   -1.4580    1.4820 H   0  0  0  0  0  0  0  0  0  0  0  0
    3.7990    1.3700   -0.3770 H   0  0  0  0  0  0  0  0  0  0  0  0
    4.2190    0.2790   -1.6960 H   0  0  0  0  0  0  0  0  0  0  0  0
    4.3520   -0.2690   -0.0300 H   0  0  0  0  0  0  0  0  0  0  0  0
   -1.6600    1.5610    0.2350 N   0  0  0  0  0  0  0  0  0  0  0  0
   -2.2040    0.7640    0.5470 H   0  0  0  0  0  0  0  0  0  0  0  0
   -2.3100    2.7960   -0.1430 C   0  0  1  0  0  0  0  0  0  0  0  0
   -2.9620    2.6510   -1.0030 H   0  0  0  0  0  0  0  0  0  0  0  0
   -2.8990    3.1900    0.6820 H   0  0  0  0  0  0  0  0  0  0  0  0
   -1.5340    3.5100   -0.4010 H   0  0  0  0  0  0  0  0  0  0  0  0
   -1.6460   -1.5640   -0.1650 C   0  0  0  0  0  0  0  0  0  0  0  0
   -2.4260   -1.1790    0.7080 O   0  0  0  0  0  0  0  0  0  0  0  0
   -2.0170   -2.6590   -1.1320 C   0  0  2  0  0  0  0  0  0  0  0  0
   -2.3240   -3.5310   -0.5610 H   0  0  0  0  0  0  0  0  0  0  0  0
   -1.2060   -2.9340   -1.8020 H   0  0  0  0  0  0  0  0  0  0  0  0
   -2.8720   -2.3300   -1.7180 H   0  0  0  0  0  0  0  0  0  0  0  0
  1  9  1  0
  1 26  1  0
  1  2  1  0
  2  3  1  0
  2  5  1  0
  2 10  1  1
  3  4  1  0
  3 20  1  0
  5  6  1  0
  5 11  1  1
  5  7  1  0
  6 12  1  6
  6 13  1  0
  6  8  1  0
  7 15  1  6
  7 16  1  0
  7 14  1  0
  8 18  1  6
  8 17  1  0
  8 19  1  0
 20 22  1  0
 20 21  1  0
 22 23  1  6
 22 25  1  0
 22 24  1  0
 26 28  1  0
 26 27  1  0
 28 30  1  6
 28 31  1  0
 28 29  1  0
M  END
$$$$
