Coordinates from ORCA-job xag
     RDKit          3D

 23 22  0  0  0  0  0  0  0  0999 V2000
    0.9950   -0.2410   -0.2620 N   0  0  0  0  0  0  0  0  0  0  0  0
   -0.0110    0.1810    0.6870 C   0  0  2  0  0  0  0  0  0  0  0  0
   -1.3850   -0.4300    0.4090 C   0  0  0  0  0  0  0  0  0  0  0  0
   -2.4070    0.1060    0.8280 O   0  0  0  0  0  0  0  0  0  0  0  0
   -0.1240    1.6990    0.7570 C   0  0  1  0  0  0  0  0  0  0  0  0
   -0.5490    2.4390   -0.8520 S   0  0  0  0  0  0  0  0  0  0  0  0
    0.9500    0.2010   -1.1690 H   0  0  0  0  0  0  0  0  0  0  0  0
    0.3170   -0.1960    1.6580 H   0  0  0  0  0  0  0  0  0  0  0  0
   -0.8700    1.9850    1.4910 H   0  0  0  0  0  0  0  0  0  0  0  0
    0.8380    2.1230    1.0380 H   0  0  0  0  0  0  0  0  0  0  0  0
    2.2140   -0.7160    0.1650 C   0  0  0  0  0  0  0  0  0  0  0  0
    2.4290   -1.0330    1.3240 O   0  0  0  0  0  0  0  0  0  0  0  0
   -1.3630   -1.5840   -0.2900 N   0  0  0  0  0  0  0  0  0  0  0  0
   -2.5620   -2.3410   -0.5700 C   0  0  1  0  0  0  0  0  0  0  0  0
   -2.6730   -2.5100   -1.6390 H   0  0  0  0  0  0  0  0  0  0  0  0
   -2.5500   -3.3010   -0.0570 H   0  0  0  0  0  0  0  0  0  0  0  0
   -3.4040   -1.7580   -0.2090 H   0  0  0  0  0  0  0  0  0  0  0  0
   -0.4610   -1.9190   -0.5850 H   0  0  0  0  0  0  0  0  0  0  0  0
    3.2590   -0.8340   -0.9170 C   0  0  2  0  0  0  0  0  0  0  0  0
    3.9990   -0.0500   -0.7680 H   0  0  0  0  0  0  0  0  0  0  0  0
    2.8450   -0.7440   -1.9190 H   0  0  0  0  0  0  0  0  0  0  0  0
    3.7630   -1.7900   -0.8120 H   0  0  0  0  0  0  0  0  0  0  0  0
   -1.8130    1.9990   -0.8490 H   0  0  0  0  0  0  0  0  0  0  0  0
  1  7  1  0
  1 11  1  0
  1  2  1  0
  2  3  1  0
  2  5  1  0
  2  8  1  1
  3 13  1  0
  3  4  1  0
  5  6  1  0
  5 10  1  1
  5  9  1  0
  6 23  1  0
 11 19  1  0
 11 12  1  0
 13 18  1  0
 13 14  1  0
 14 15  1  6
 14 17  1  0
 14 16  1  0
 19 21  1  6
 19 22  1  0
 19 20  1  0
M  END
$$$$
