 energy: -91.991280241909 gnorm: 0.000018169370 xtb: 6.5.1 (9af7eec)
     RDKit          3D

 56 59  0  0  0  0  0  0  0  0999 V2000
   -4.7120   -8.8563  -16.7162 C   0  0  1  0  0  0  0  0  0  0  0  0
   -4.6040   -7.4146  -16.6446 N   0  0  0  0  0  0  0  0  0  0  0  0
   -5.3065   -6.7926  -17.7457 C   0  0  1  0  0  0  0  0  0  0  0  0
   -5.0405   -6.9210  -15.3495 C   0  0  1  0  0  0  0  0  0  0  0  0
   -4.7173   -5.4375  -15.1493 C   0  0  1  0  0  0  0  0  0  0  0  0
   -4.4048   -5.1218  -13.6866 C   0  0  1  0  0  0  0  0  0  0  0  0
   -3.2479   -5.8812  -13.2486 N   0  0  0  0  0  0  0  0  0  0  0  0
   -1.7500   -5.3095  -13.7703 S   0  0  1  0  0  6  0  0  0  0  0  0
   -1.8161   -3.8950  -14.0232 O   0  0  0  0  0  0  0  0  0  0  0  0
   -0.8020   -5.7870  -12.8043 O   0  0  0  0  0  0  0  0  0  0  0  0
   -1.5258   -6.1720  -15.3113 C   0  0  0  0  0  0  0  0  0  0  0  0
   -1.5059   -7.5523  -15.3149 C   0  0  0  0  0  0  0  0  0  0  0  0
   -1.4213   -8.2350  -16.5119 C   0  0  0  0  0  0  0  0  0  0  0  0
   -1.3664   -7.5274  -17.7136 C   0  0  0  0  0  0  0  0  0  0  0  0
   -1.3420   -6.1297  -17.6887 C   0  0  0  0  0  0  0  0  0  0  0  0
   -1.4259   -5.4553  -16.4886 C   0  0  0  0  0  0  0  0  0  0  0  0
   -1.3149   -8.1486  -18.9475 N   0  0  0  0  0  0  0  0  0  0  0  0
   -1.5293   -9.4446  -19.3024 C   0  0  0  0  0  0  0  0  0  0  0  0
   -1.3988   -9.6692  -20.6182 N   0  0  0  0  0  0  0  0  0  0  0  0
   -1.5944  -10.9079  -21.0281 C   0  0  0  0  0  0  0  0  0  0  0  0
   -1.9311  -11.9420  -20.1695 C   0  0  0  0  0  0  0  0  0  0  0  0
   -2.0616  -11.6027  -18.8199 C   0  0  0  0  0  0  0  0  0  0  0  0
   -1.8535  -10.3541  -18.3941 N   0  0  0  0  0  0  0  0  0  0  0  0
   -2.4350  -12.5464  -17.7939 C   0  0  0  0  0  0  0  0  0  0  0  0
   -2.6576  -12.3144  -16.4370 C   0  0  0  0  0  0  0  0  0  0  0  0
   -2.9983  -13.4292  -15.7899 N   0  0  0  0  0  0  0  0  0  0  0  0
   -3.0011  -14.3906  -16.7012 C   0  0  0  0  0  0  0  0  0  0  0  0
   -2.6587  -13.8815  -17.9574 N   0  0  0  0  0  0  0  0  0  0  0  0
   -2.5792  -14.6063  -19.0587 N   0  0  0  0  0  0  0  0  0  0  0  0
   -2.8396  -15.8770  -18.9486 C   0  0  0  0  0  0  0  0  0  0  0  0
   -3.1955  -16.5111  -17.7418 C   0  0  0  0  0  0  0  0  0  0  0  0
   -3.2780  -15.7567  -16.5998 C   0  0  0  0  0  0  0  0  0  0  0  0
   -4.1789   -9.2975  -15.8773 H   0  0  0  0  0  0  0  0  0  0  0  0
   -5.7567   -9.2071  -16.6903 H   0  0  0  0  0  0  0  0  0  0  0  0
   -4.2486   -9.2054  -17.6377 H   0  0  0  0  0  0  0  0  0  0  0  0
   -6.3930   -6.9780  -17.7155 H   0  0  0  0  0  0  0  0  0  0  0  0
   -5.1355   -5.7189  -17.7299 H   0  0  0  0  0  0  0  0  0  0  0  0
   -4.9150   -7.1907  -18.6810 H   0  0  0  0  0  0  0  0  0  0  0  0
   -6.1216   -7.0942  -15.1913 H   0  0  0  0  0  0  0  0  0  0  0  0
   -4.4911   -7.4871  -14.5941 H   0  0  0  0  0  0  0  0  0  0  0  0
   -3.8448   -5.1860  -15.7497 H   0  0  0  0  0  0  0  0  0  0  0  0
   -5.5502   -4.8092  -15.4685 H   0  0  0  0  0  0  0  0  0  0  0  0
   -4.2122   -4.0460  -13.5847 H   0  0  0  0  0  0  0  0  0  0  0  0
   -5.2543   -5.3935  -13.0553 H   0  0  0  0  0  0  0  0  0  0  0  0
   -3.2018   -6.0113  -12.2494 H   0  0  0  0  0  0  0  0  0  0  0  0
   -1.5556   -8.0749  -14.3733 H   0  0  0  0  0  0  0  0  0  0  0  0
   -1.4105   -9.3105  -16.5438 H   0  0  0  0  0  0  0  0  0  0  0  0
   -1.2718   -5.5793  -18.6158 H   0  0  0  0  0  0  0  0  0  0  0  0
   -1.4250   -4.3773  -16.4421 H   0  0  0  0  0  0  0  0  0  0  0  0
   -1.1527   -7.5505  -19.7477 H   0  0  0  0  0  0  0  0  0  0  0  0
   -1.4792  -11.0715  -22.0921 H   0  0  0  0  0  0  0  0  0  0  0  0
   -2.0894  -12.9477  -20.5147 H   0  0  0  0  0  0  0  0  0  0  0  0
   -2.5830  -11.3753  -15.9271 H   0  0  0  0  0  0  0  0  0  0  0  0
   -2.7634  -16.4335  -19.8705 H   0  0  0  0  0  0  0  0  0  0  0  0
   -3.3958  -17.5696  -17.7322 H   0  0  0  0  0  0  0  0  0  0  0  0
   -3.5432  -16.1682  -15.6399 H   0  0  0  0  0  0  0  0  0  0  0  0
  1  2  1  0
  2  3  1  0
  2  4  1  0
  4  5  1  0
  5  6  1  0
  6  7  1  0
  8  7  1  1
  8  9  2  0
  8 10  2  0
  8 11  1  0
 11 12  2  0
 12 13  1  0
 13 14  2  0
 14 15  1  0
 15 16  2  0
 14 17  1  0
 17 18  1  0
 18 19  2  0
 19 20  1  0
 20 21  2  0
 21 22  1  0
 22 23  2  0
 22 24  1  0
 24 25  2  0
 25 26  1  0
 26 27  2  0
 27 28  1  0
 28 29  1  0
 29 30  2  0
 30 31  1  0
 31 32  2  0
 16 11  1  0
 23 18  1  0
 28 24  1  0
 32 27  1  0
  1 33  1  1
  1 34  1  0
  1 35  1  0
  3 36  1  1
  3 37  1  0
  3 38  1  0
  4 39  1  1
  4 40  1  0
  5 41  1  6
  5 42  1  0
  6 43  1  6
  6 44  1  0
  7 45  1  0
 12 46  1  0
 13 47  1  0
 15 48  1  0
 16 49  1  0
 17 50  1  0
 20 51  1  0
 21 52  1  0
 25 53  1  0
 30 54  1  0
 31 55  1  0
 32 56  1  0
M  END
$$$$
