 energy: -91.991235572024 gnorm: 0.000035178406 xtb: 6.5.1 (9af7eec)
     RDKit          3D

 56 59  0  0  0  0  0  0  0  0999 V2000
    7.4750   -1.0942   -0.6745 C   0  0  1  0  0  0  0  0  0  0  0  0
    6.0912   -0.6652   -0.7556 N   0  0  0  0  0  0  0  0  0  0  0  0
    5.9988    0.7048   -1.2151 C   0  0  1  0  0  0  0  0  0  0  0  0
    5.3975   -0.8585    0.5124 C   0  0  1  0  0  0  0  0  0  0  0  0
    3.8998   -1.0815    0.3009 C   0  0  1  0  0  0  0  0  0  0  0  0
    3.6560   -2.4279   -0.3870 C   0  0  1  0  0  0  0  0  0  0  0  0
    3.8818   -3.5347    0.5175 N   0  0  0  0  0  0  0  0  0  0  0  0
    5.0941   -4.6423    0.2599 S   0  0  1  0  0  6  0  0  0  0  0  0
    6.3588   -3.9799    0.3981 O   0  0  0  0  0  0  0  0  0  0  0  0
    4.7905   -5.7355    1.1373 O   0  0  0  0  0  0  0  0  0  0  0  0
    4.8964   -5.1382   -1.4409 C   0  0  0  0  0  0  0  0  0  0  0  0
    5.5603   -4.4425   -2.4338 C   0  0  0  0  0  0  0  0  0  0  0  0
    5.3506   -4.7595   -3.7617 C   0  0  0  0  0  0  0  0  0  0  0  0
    4.4795   -5.7992   -4.0954 C   0  0  0  0  0  0  0  0  0  0  0  0
    3.8284   -6.5066   -3.0772 C   0  0  0  0  0  0  0  0  0  0  0  0
    4.0285   -6.1672   -1.7544 C   0  0  0  0  0  0  0  0  0  0  0  0
    4.2341   -6.1781   -5.4013 N   0  0  0  0  0  0  0  0  0  0  0  0
    4.6892   -5.6671   -6.5792 C   0  0  0  0  0  0  0  0  0  0  0  0
    4.2722   -6.3467   -7.6559 N   0  0  0  0  0  0  0  0  0  0  0  0
    4.6834   -5.9026   -8.8296 C   0  0  0  0  0  0  0  0  0  0  0  0
    5.4966   -4.7916   -8.9691 C   0  0  0  0  0  0  0  0  0  0  0  0
    5.8674   -4.1422   -7.7849 C   0  0  0  0  0  0  0  0  0  0  0  0
    5.4623   -4.5906   -6.5989 N   0  0  0  0  0  0  0  0  0  0  0  0
    6.7023   -2.9648   -7.8025 C   0  0  0  0  0  0  0  0  0  0  0  0
    7.4318   -2.3938   -8.8439 C   0  0  0  0  0  0  0  0  0  0  0  0
    8.0914   -1.3025   -8.4521 N   0  0  0  0  0  0  0  0  0  0  0  0
    7.8014   -1.1466   -7.1680 C   0  0  0  0  0  0  0  0  0  0  0  0
    6.9476   -2.1575   -6.7285 N   0  0  0  0  0  0  0  0  0  0  0  0
    6.4729   -2.2532   -5.5041 N   0  0  0  0  0  0  0  0  0  0  0  0
    6.8400   -1.3415   -4.6523 C   0  0  0  0  0  0  0  0  0  0  0  0
    7.7102   -0.2764   -4.9672 C   0  0  0  0  0  0  0  0  0  0  0  0
    8.1985   -0.1749   -6.2434 C   0  0  0  0  0  0  0  0  0  0  0  0
    8.0657   -0.4865    0.0283 H   0  0  0  0  0  0  0  0  0  0  0  0
    7.5027   -2.1322   -0.3487 H   0  0  0  0  0  0  0  0  0  0  0  0
    7.9344   -1.0166   -1.6608 H   0  0  0  0  0  0  0  0  0  0  0  0
    4.9536    0.9956   -1.3005 H   0  0  0  0  0  0  0  0  0  0  0  0
    6.5029    1.4139   -0.5377 H   0  0  0  0  0  0  0  0  0  0  0  0
    6.4562    0.7873   -2.2007 H   0  0  0  0  0  0  0  0  0  0  0  0
    5.8000   -1.7551    0.9856 H   0  0  0  0  0  0  0  0  0  0  0  0
    5.5581   -0.0046    1.1913 H   0  0  0  0  0  0  0  0  0  0  0  0
    3.3947   -1.0717    1.2673 H   0  0  0  0  0  0  0  0  0  0  0  0
    3.4774   -0.2887   -0.3173 H   0  0  0  0  0  0  0  0  0  0  0  0
    2.6384   -2.4727   -0.7889 H   0  0  0  0  0  0  0  0  0  0  0  0
    4.3597   -2.5156   -1.2171 H   0  0  0  0  0  0  0  0  0  0  0  0
    3.0664   -3.9644    0.9163 H   0  0  0  0  0  0  0  0  0  0  0  0
    6.2519   -3.6653   -2.1500 H   0  0  0  0  0  0  0  0  0  0  0  0
    5.8381   -4.2060   -4.5460 H   0  0  0  0  0  0  0  0  0  0  0  0
    3.1636   -7.3194   -3.3327 H   0  0  0  0  0  0  0  0  0  0  0  0
    3.5382   -6.6989   -0.9543 H   0  0  0  0  0  0  0  0  0  0  0  0
    3.6340   -6.9821   -5.5348 H   0  0  0  0  0  0  0  0  0  0  0  0
    4.3397   -6.4650   -9.6884 H   0  0  0  0  0  0  0  0  0  0  0  0
    5.8155   -4.4403   -9.9342 H   0  0  0  0  0  0  0  0  0  0  0  0
    7.5117   -2.7375   -9.8565 H   0  0  0  0  0  0  0  0  0  0  0  0
    6.4233   -1.4523   -3.6622 H   0  0  0  0  0  0  0  0  0  0  0  0
    7.9802    0.4401   -4.2085 H   0  0  0  0  0  0  0  0  0  0  0  0
    8.8637    0.6112   -6.5609 H   0  0  0  0  0  0  0  0  0  0  0  0
  1  2  1  0
  2  3  1  0
  2  4  1  0
  4  5  1  0
  5  6  1  0
  6  7  1  0
  8  7  1  1
  8  9  2  0
  8 10  2  0
  8 11  1  0
 11 12  2  0
 12 13  1  0
 13 14  2  0
 14 15  1  0
 15 16  2  0
 14 17  1  0
 17 18  1  0
 18 19  2  0
 19 20  1  0
 20 21  2  0
 21 22  1  0
 22 23  2  0
 22 24  1  0
 24 25  2  0
 25 26  1  0
 26 27  2  0
 27 28  1  0
 28 29  1  0
 29 30  2  0
 30 31  1  0
 31 32  2  0
 16 11  1  0
 23 18  1  0
 28 24  1  0
 32 27  1  0
  1 33  1  1
  1 34  1  0
  1 35  1  0
  3 36  1  6
  3 37  1  0
  3 38  1  0
  4 39  1  1
  4 40  1  0
  5 41  1  1
  5 42  1  0
  6 43  1  6
  6 44  1  0
  7 45  1  0
 12 46  1  0
 13 47  1  0
 15 48  1  0
 16 49  1  0
 17 50  1  0
 20 51  1  0
 21 52  1  0
 25 53  1  0
 30 54  1  0
 31 55  1  0
 32 56  1  0
M  END
$$$$
