 energy: -91.988144722301 gnorm: 0.000030785061 xtb: 6.5.1 (9af7eec)
     RDKit          3D

 56 59  0  0  0  0  0  0  0  0999 V2000
    6.1141    4.4756    2.8549 C   0  0  1  0  0  0  0  0  0  0  0  0
    5.3294    3.5135    3.5977 N   0  0  0  0  0  0  0  0  0  0  0  0
    5.3759    3.7924    5.0171 C   0  0  1  0  0  0  0  0  0  0  0  0
    3.9664    3.4210    3.0973 C   0  0  1  0  0  0  0  0  0  0  0  0
    3.3355    2.0635    3.4088 C   0  0  1  0  0  0  0  0  0  0  0  0
    4.1216    0.9224    2.7700 C   0  0  1  0  0  0  0  0  0  0  0  0
    4.1108    1.0461    1.3234 N   0  0  0  0  0  0  0  0  0  0  0  0
    2.6497    0.7579    0.5481 S   0  0  1  0  0  6  0  0  0  0  0  0
    2.9873    0.2230   -0.7413 O   0  0  0  0  0  0  0  0  0  0  0  0
    1.7582    0.0119    1.3925 O   0  0  0  0  0  0  0  0  0  0  0  0
    2.0164    2.4100    0.3304 C   0  0  0  0  0  0  0  0  0  0  0  0
    0.8032    2.7819    0.8758 C   0  0  0  0  0  0  0  0  0  0  0  0
    0.3373    4.0724    0.7111 C   0  0  0  0  0  0  0  0  0  0  0  0
    1.0942    4.9987   -0.0089 C   0  0  0  0  0  0  0  0  0  0  0  0
    2.3180    4.6029   -0.5624 C   0  0  0  0  0  0  0  0  0  0  0  0
    2.7741    3.3120   -0.3935 C   0  0  0  0  0  0  0  0  0  0  0  0
    0.6891    6.3030   -0.2123 N   0  0  0  0  0  0  0  0  0  0  0  0
   -0.4334    6.9688    0.1806 C   0  0  0  0  0  0  0  0  0  0  0  0
   -0.4833    8.2313   -0.2673 N   0  0  0  0  0  0  0  0  0  0  0  0
   -1.5473    8.9352    0.0691 C   0  0  0  0  0  0  0  0  0  0  0  0
   -2.5739    8.4233    0.8457 C   0  0  0  0  0  0  0  0  0  0  0  0
   -2.4235    7.1009    1.2726 C   0  0  0  0  0  0  0  0  0  0  0  0
   -1.3493    6.3806    0.9361 N   0  0  0  0  0  0  0  0  0  0  0  0
   -3.3911    6.4193    2.0984 C   0  0  0  0  0  0  0  0  0  0  0  0
   -3.3348    5.1314    2.6316 C   0  0  0  0  0  0  0  0  0  0  0  0
   -4.4183    4.8424    3.3521 N   0  0  0  0  0  0  0  0  0  0  0  0
   -5.1871    5.9196    3.2991 C   0  0  0  0  0  0  0  0  0  0  0  0
   -4.5833    6.9202    2.5324 N   0  0  0  0  0  0  0  0  0  0  0  0
   -5.1170    8.1064    2.3033 N   0  0  0  0  0  0  0  0  0  0  0  0
   -6.2823    8.3418    2.8337 C   0  0  0  0  0  0  0  0  0  0  0  0
   -6.9938    7.4184    3.6250 C   0  0  0  0  0  0  0  0  0  0  0  0
   -6.4380    6.1877    3.8621 C   0  0  0  0  0  0  0  0  0  0  0  0
    6.1279    4.1911    1.8039 H   0  0  0  0  0  0  0  0  0  0  0  0
    5.7251    5.5033    2.9378 H   0  0  0  0  0  0  0  0  0  0  0  0
    7.1368    4.4641    3.2305 H   0  0  0  0  0  0  0  0  0  0  0  0
    4.9410    4.7735    5.2699 H   0  0  0  0  0  0  0  0  0  0  0  0
    4.8322    3.0233    5.5606 H   0  0  0  0  0  0  0  0  0  0  0  0
    6.4131    3.7777    5.3492 H   0  0  0  0  0  0  0  0  0  0  0  0
    3.3279    4.2257    3.5035 H   0  0  0  0  0  0  0  0  0  0  0  0
    3.9963    3.5328    2.0121 H   0  0  0  0  0  0  0  0  0  0  0  0
    3.3006    1.8958    4.4856 H   0  0  0  0  0  0  0  0  0  0  0  0
    2.3135    2.0486    3.0315 H   0  0  0  0  0  0  0  0  0  0  0  0
    5.1591    0.9761    3.1045 H   0  0  0  0  0  0  0  0  0  0  0  0
    3.6807   -0.0344    3.0774 H   0  0  0  0  0  0  0  0  0  0  0  0
    4.8323    0.5082    0.8691 H   0  0  0  0  0  0  0  0  0  0  0  0
    0.2338    2.0462    1.4224 H   0  0  0  0  0  0  0  0  0  0  0  0
   -0.6062    4.3860    1.1228 H   0  0  0  0  0  0  0  0  0  0  0  0
    2.9023    5.3156   -1.1266 H   0  0  0  0  0  0  0  0  0  0  0  0
    3.7088    2.9842   -0.8191 H   0  0  0  0  0  0  0  0  0  0  0  0
    1.2994    6.8817   -0.7756 H   0  0  0  0  0  0  0  0  0  0  0  0
   -1.5720    9.9517   -0.3026 H   0  0  0  0  0  0  0  0  0  0  0  0
   -3.4384    9.0046    1.1108 H   0  0  0  0  0  0  0  0  0  0  0  0
   -2.5431    4.4192    2.5140 H   0  0  0  0  0  0  0  0  0  0  0  0
   -6.6830    9.3218    2.6225 H   0  0  0  0  0  0  0  0  0  0  0  0
   -7.9554    7.6887    4.0288 H   0  0  0  0  0  0  0  0  0  0  0  0
   -6.9191    5.4281    4.4559 H   0  0  0  0  0  0  0  0  0  0  0  0
  1  2  1  0
  2  3  1  0
  2  4  1  0
  4  5  1  0
  5  6  1  0
  6  7  1  0
  8  7  1  1
  8  9  2  0
  8 10  2  0
  8 11  1  0
 11 12  2  0
 12 13  1  0
 13 14  2  0
 14 15  1  0
 15 16  2  0
 14 17  1  0
 17 18  1  0
 18 19  2  0
 19 20  1  0
 20 21  2  0
 21 22  1  0
 22 23  2  0
 22 24  1  0
 24 25  2  0
 25 26  1  0
 26 27  2  0
 27 28  1  0
 28 29  1  0
 29 30  2  0
 30 31  1  0
 31 32  2  0
 16 11  1  0
 23 18  1  0
 28 24  1  0
 32 27  1  0
  1 33  1  6
  1 34  1  0
  1 35  1  0
  3 36  1  6
  3 37  1  0
  3 38  1  0
  4 39  1  1
  4 40  1  0
  5 41  1  1
  5 42  1  0
  6 43  1  1
  6 44  1  0
  7 45  1  0
 12 46  1  0
 13 47  1  0
 15 48  1  0
 16 49  1  0
 17 50  1  0
 20 51  1  0
 21 52  1  0
 25 53  1  0
 30 54  1  0
 31 55  1  0
 32 56  1  0
M  END
$$$$
