 energy: -91.993533441243 gnorm: 0.000029147497 xtb: 6.5.1 (9af7eec)
     RDKit          3D

 56 59  0  0  0  0  0  0  0  0999 V2000
    1.0427   -2.5389   -1.5127 C   0  0  1  0  0  0  0  0  0  0  0  0
    1.0001   -3.7004   -0.6475 N   0  0  0  0  0  0  0  0  0  0  0  0
    1.8943   -3.5363    0.4854 C   0  0  1  0  0  0  0  0  0  0  0  0
   -0.3689   -3.9677   -0.2319 C   0  0  1  0  0  0  0  0  0  0  0  0
   -0.5320   -5.3112    0.4762 C   0  0  1  0  0  0  0  0  0  0  0  0
   -0.0622   -6.4691   -0.4064 C   0  0  1  0  0  0  0  0  0  0  0  0
    0.0847   -7.7219    0.3021 N   0  0  0  0  0  0  0  0  0  0  0  0
    1.4818   -7.9051    1.2147 S   0  0  1  0  0  6  0  0  0  0  0  0
    1.9018   -6.6557    1.7963 O   0  0  0  0  0  0  0  0  0  0  0  0
    1.2312   -9.0082    2.0957 O   0  0  0  0  0  0  0  0  0  0  0  0
    2.6282   -8.3709   -0.0601 C   0  0  0  0  0  0  0  0  0  0  0  0
    2.6738   -9.6905   -0.4693 C   0  0  0  0  0  0  0  0  0  0  0  0
    3.5273  -10.0541   -1.4902 C   0  0  0  0  0  0  0  0  0  0  0  0
    4.3298   -9.0934   -2.1183 C   0  0  0  0  0  0  0  0  0  0  0  0
    4.2650   -7.7626   -1.6997 C   0  0  0  0  0  0  0  0  0  0  0  0
    3.4175   -7.4124   -0.6660 C   0  0  0  0  0  0  0  0  0  0  0  0
    5.1656   -9.5206   -3.1324 N   0  0  0  0  0  0  0  0  0  0  0  0
    6.0681   -8.8439   -3.8950 C   0  0  0  0  0  0  0  0  0  0  0  0
    6.7445   -9.6281   -4.7457 N   0  0  0  0  0  0  0  0  0  0  0  0
    7.6431   -9.0345   -5.5095 C   0  0  0  0  0  0  0  0  0  0  0  0
    7.8909   -7.6739   -5.4574 C   0  0  0  0  0  0  0  0  0  0  0  0
    7.1248   -6.9394   -4.5438 C   0  0  0  0  0  0  0  0  0  0  0  0
    6.2204   -7.5332   -3.7682 N   0  0  0  0  0  0  0  0  0  0  0  0
    7.2882   -5.5117   -4.4042 C   0  0  0  0  0  0  0  0  0  0  0  0
    8.2804   -4.6655   -4.8958 C   0  0  0  0  0  0  0  0  0  0  0  0
    8.0820   -3.3979   -4.5302 N   0  0  0  0  0  0  0  0  0  0  0  0
    6.9701   -3.3998   -3.8087 C   0  0  0  0  0  0  0  0  0  0  0  0
    6.4514   -4.6901   -3.7053 N   0  0  0  0  0  0  0  0  0  0  0  0
    5.3422   -4.9993   -3.0678 N   0  0  0  0  0  0  0  0  0  0  0  0
    4.7005   -4.0281   -2.4883 C   0  0  0  0  0  0  0  0  0  0  0  0
    5.1281   -2.6835   -2.5032 C   0  0  0  0  0  0  0  0  0  0  0  0
    6.2788   -2.3623   -3.1745 C   0  0  0  0  0  0  0  0  0  0  0  0
    2.0643   -2.3821   -1.8556 H   0  0  0  0  0  0  0  0  0  0  0  0
    0.4127   -2.7145   -2.3840 H   0  0  0  0  0  0  0  0  0  0  0  0
    0.6979   -1.6196   -1.0122 H   0  0  0  0  0  0  0  0  0  0  0  0
    1.5621   -2.7375    1.1666 H   0  0  0  0  0  0  0  0  0  0  0  0
    1.9656   -4.4678    1.0426 H   0  0  0  0  0  0  0  0  0  0  0  0
    2.8881   -3.2797    0.1193 H   0  0  0  0  0  0  0  0  0  0  0  0
   -0.7473   -3.1672    0.4308 H   0  0  0  0  0  0  0  0  0  0  0  0
   -0.9856   -3.9727   -1.1362 H   0  0  0  0  0  0  0  0  0  0  0  0
    0.0456   -5.3263    1.3993 H   0  0  0  0  0  0  0  0  0  0  0  0
   -1.5856   -5.4439    0.7340 H   0  0  0  0  0  0  0  0  0  0  0  0
   -0.7578   -6.6247   -1.2372 H   0  0  0  0  0  0  0  0  0  0  0  0
    0.9176   -6.2282   -0.8205 H   0  0  0  0  0  0  0  0  0  0  0  0
   -0.7278   -7.9904    0.8365 H   0  0  0  0  0  0  0  0  0  0  0  0
    2.0483  -10.4113    0.0316 H   0  0  0  0  0  0  0  0  0  0  0  0
    3.5796  -11.0848   -1.8107 H   0  0  0  0  0  0  0  0  0  0  0  0
    4.8710   -7.0223   -2.1947 H   0  0  0  0  0  0  0  0  0  0  0  0
    3.3701   -6.3965   -0.3073 H   0  0  0  0  0  0  0  0  0  0  0  0
    5.1509  -10.5110   -3.3415 H   0  0  0  0  0  0  0  0  0  0  0  0
    8.1806   -9.6831   -6.1894 H   0  0  0  0  0  0  0  0  0  0  0  0
    8.6226   -7.2059   -6.0915 H   0  0  0  0  0  0  0  0  0  0  0  0
    9.1341   -4.9282   -5.4892 H   0  0  0  0  0  0  0  0  0  0  0  0
    3.7924   -4.3251   -1.9853 H   0  0  0  0  0  0  0  0  0  0  0  0
    4.5521   -1.9289   -1.9923 H   0  0  0  0  0  0  0  0  0  0  0  0
    6.6664   -1.3586   -3.2353 H   0  0  0  0  0  0  0  0  0  0  0  0
  1  2  1  0
  2  3  1  0
  2  4  1  0
  4  5  1  0
  5  6  1  0
  6  7  1  0
  8  7  1  6
  8  9  2  0
  8 10  2  0
  8 11  1  0
 11 12  2  0
 12 13  1  0
 13 14  2  0
 14 15  1  0
 15 16  2  0
 14 17  1  0
 17 18  1  0
 18 19  2  0
 19 20  1  0
 20 21  2  0
 21 22  1  0
 22 23  2  0
 22 24  1  0
 24 25  2  0
 25 26  1  0
 26 27  2  0
 27 28  1  0
 28 29  1  0
 29 30  2  0
 30 31  1  0
 31 32  2  0
 16 11  1  0
 23 18  1  0
 28 24  1  0
 32 27  1  0
  1 33  1  6
  1 34  1  0
  1 35  1  0
  3 36  1  1
  3 37  1  0
  3 38  1  0
  4 39  1  1
  4 40  1  0
  5 41  1  1
  5 42  1  0
  6 43  1  6
  6 44  1  0
  7 45  1  0
 12 46  1  0
 13 47  1  0
 15 48  1  0
 16 49  1  0
 17 50  1  0
 20 51  1  0
 21 52  1  0
 25 53  1  0
 30 54  1  0
 31 55  1  0
 32 56  1  0
M  END
$$$$
