 energy: -91.990356191242 gnorm: 0.000025248698 xtb: 6.5.1 (9af7eec)
     RDKit          3D

 56 59  0  0  0  0  0  0  0  0999 V2000
    5.7784    5.2088    3.5702 C   0  0  1  0  0  0  0  0  0  0  0  0
    5.6515    3.7826    3.8070 N   0  0  0  0  0  0  0  0  0  0  0  0
    6.3208    3.4048    5.0352 C   0  0  1  0  0  0  0  0  0  0  0  0
    4.2507    3.3865    3.7851 C   0  0  1  0  0  0  0  0  0  0  0  0
    4.0628    1.8766    3.6334 C   0  0  1  0  0  0  0  0  0  0  0  0
    4.7646    1.3094    2.3949 C   0  0  1  0  0  0  0  0  0  0  0  0
    4.0918    1.5176    1.1332 N   0  0  0  0  0  0  0  0  0  0  0  0
    4.3809    2.8315    0.1417 S   0  0  1  0  0  6  0  0  0  0  0  0
    3.6023    2.5683   -1.0343 O   0  0  0  0  0  0  0  0  0  0  0  0
    4.1691    4.0971    0.7946 O   0  0  0  0  0  0  0  0  0  0  0  0
    6.1147    2.6171   -0.1833 C   0  0  0  0  0  0  0  0  0  0  0  0
    7.0365    3.2045    0.6626 C   0  0  0  0  0  0  0  0  0  0  0  0
    8.3854    2.9850    0.4657 C   0  0  0  0  0  0  0  0  0  0  0  0
    8.8159    2.1743   -0.5866 C   0  0  0  0  0  0  0  0  0  0  0  0
    7.8686    1.6114   -1.4497 C   0  0  0  0  0  0  0  0  0  0  0  0
    6.5206    1.8263   -1.2412 C   0  0  0  0  0  0  0  0  0  0  0  0
   10.1536    1.9154   -0.8246 N   0  0  0  0  0  0  0  0  0  0  0  0
   11.2441    2.1580   -0.0453 C   0  0  0  0  0  0  0  0  0  0  0  0
   12.4089    1.8081   -0.6077 N   0  0  0  0  0  0  0  0  0  0  0  0
   13.4965    2.0256    0.1083 C   0  0  0  0  0  0  0  0  0  0  0  0
   13.4684    2.5731    1.3814 C   0  0  0  0  0  0  0  0  0  0  0  0
   12.2031    2.8829    1.8872 C   0  0  0  0  0  0  0  0  0  0  0  0
   11.1000    2.6775    1.1650 N   0  0  0  0  0  0  0  0  0  0  0  0
   11.9706    3.4257    3.2043 C   0  0  0  0  0  0  0  0  0  0  0  0
   10.7531    3.6602    3.8432 C   0  0  0  0  0  0  0  0  0  0  0  0
   10.9220    4.1658    5.0657 N   0  0  0  0  0  0  0  0  0  0  0  0
   12.2318    4.2679    5.2379 C   0  0  0  0  0  0  0  0  0  0  0  0
   12.9154    3.8147    4.1059 N   0  0  0  0  0  0  0  0  0  0  0  0
   14.2305    3.7958    3.9856 N   0  0  0  0  0  0  0  0  0  0  0  0
   14.9208    4.2319    4.9994 C   0  0  0  0  0  0  0  0  0  0  0  0
   14.3531    4.7139    6.1955 C   0  0  0  0  0  0  0  0  0  0  0  0
   12.9876    4.7326    6.3177 C   0  0  0  0  0  0  0  0  0  0  0  0
    5.3001    5.4538    2.6229 H   0  0  0  0  0  0  0  0  0  0  0  0
    5.3127    5.8114    4.3659 H   0  0  0  0  0  0  0  0  0  0  0  0
    6.8356    5.4699    3.5182 H   0  0  0  0  0  0  0  0  0  0  0  0
    5.8442    3.8420    5.9275 H   0  0  0  0  0  0  0  0  0  0  0  0
    6.3218    2.3215    5.1368 H   0  0  0  0  0  0  0  0  0  0  0  0
    7.3553    3.7442    4.9980 H   0  0  0  0  0  0  0  0  0  0  0  0
    3.7240    3.7226    4.6975 H   0  0  0  0  0  0  0  0  0  0  0  0
    3.7935    3.8772    2.9249 H   0  0  0  0  0  0  0  0  0  0  0  0
    4.4524    1.3597    4.5122 H   0  0  0  0  0  0  0  0  0  0  0  0
    2.9926    1.6641    3.5751 H   0  0  0  0  0  0  0  0  0  0  0  0
    5.7529    1.7614    2.3083 H   0  0  0  0  0  0  0  0  0  0  0  0
    4.8878    0.2259    2.5161 H   0  0  0  0  0  0  0  0  0  0  0  0
    3.1176    1.2608    1.1221 H   0  0  0  0  0  0  0  0  0  0  0  0
    6.6854    3.8267    1.4691 H   0  0  0  0  0  0  0  0  0  0  0  0
    9.1193    3.4273    1.1159 H   0  0  0  0  0  0  0  0  0  0  0  0
    8.1985    1.0000   -2.2773 H   0  0  0  0  0  0  0  0  0  0  0  0
    5.7711    1.3987   -1.8873 H   0  0  0  0  0  0  0  0  0  0  0  0
   10.3819    1.4393   -1.6877 H   0  0  0  0  0  0  0  0  0  0  0  0
   14.4291    1.7431   -0.3636 H   0  0  0  0  0  0  0  0  0  0  0  0
   14.3620    2.7462    1.9535 H   0  0  0  0  0  0  0  0  0  0  0  0
    9.7747    3.4650    3.4513 H   0  0  0  0  0  0  0  0  0  0  0  0
   15.9912    4.2000    4.8624 H   0  0  0  0  0  0  0  0  0  0  0  0
   14.9934    5.0582    6.9908 H   0  0  0  0  0  0  0  0  0  0  0  0
   12.4801    5.0864    7.2000 H   0  0  0  0  0  0  0  0  0  0  0  0
  1  2  1  0
  2  3  1  0
  2  4  1  0
  4  5  1  0
  5  6  1  0
  6  7  1  0
  8  7  1  1
  8  9  2  0
  8 10  2  0
  8 11  1  0
 11 12  2  0
 12 13  1  0
 13 14  2  0
 14 15  1  0
 15 16  2  0
 14 17  1  0
 17 18  1  0
 18 19  2  0
 19 20  1  0
 20 21  2  0
 21 22  1  0
 22 23  2  0
 22 24  1  0
 24 25  2  0
 25 26  1  0
 26 27  2  0
 27 28  1  0
 28 29  1  0
 29 30  2  0
 30 31  1  0
 31 32  2  0
 16 11  1  0
 23 18  1  0
 28 24  1  0
 32 27  1  0
  1 33  1  6
  1 34  1  0
  1 35  1  0
  3 36  1  1
  3 37  1  0
  3 38  1  0
  4 39  1  1
  4 40  1  0
  5 41  1  1
  5 42  1  0
  6 43  1  6
  6 44  1  0
  7 45  1  0
 12 46  1  0
 13 47  1  0
 15 48  1  0
 16 49  1  0
 17 50  1  0
 20 51  1  0
 21 52  1  0
 25 53  1  0
 30 54  1  0
 31 55  1  0
 32 56  1  0
M  END
$$$$
