 energy: -91.991355243794 gnorm: 0.000039899114 xtb: 6.5.1 (9af7eec)
     RDKit          3D

 56 59  0  0  0  0  0  0  0  0999 V2000
    4.7787    6.0482   -5.8847 C   0  0  1  0  0  0  0  0  0  0  0  0
    4.3517    5.8852   -4.5110 N   0  0  0  0  0  0  0  0  0  0  0  0
    2.9039    5.8445   -4.4219 C   0  0  1  0  0  0  0  0  0  0  0  0
    4.9322    6.9102   -3.6594 C   0  0  1  0  0  0  0  0  0  0  0  0
    4.7754    6.5948   -2.1719 C   0  0  1  0  0  0  0  0  0  0  0  0
    5.3548    5.2184   -1.8389 C   0  0  1  0  0  0  0  0  0  0  0  0
    4.9599    4.7087   -0.5436 N   0  0  0  0  0  0  0  0  0  0  0  0
    3.4189    4.0533   -0.4436 S   0  0  1  0  0  6  0  0  0  0  0  0
    3.1577    3.8914    0.9571 O   0  0  0  0  0  0  0  0  0  0  0  0
    2.4644    4.7981   -1.2237 O   0  0  0  0  0  0  0  0  0  0  0  0
    3.6949    2.4711   -1.2064 C   0  0  0  0  0  0  0  0  0  0  0  0
    3.3207    2.2445   -2.5170 C   0  0  0  0  0  0  0  0  0  0  0  0
    3.5664    1.0169   -3.1030 C   0  0  0  0  0  0  0  0  0  0  0  0
    4.1885    0.0073   -2.3656 C   0  0  0  0  0  0  0  0  0  0  0  0
    4.5624    0.2559   -1.0389 C   0  0  0  0  0  0  0  0  0  0  0  0
    4.3175    1.4851   -0.4639 C   0  0  0  0  0  0  0  0  0  0  0  0
    4.4548   -1.2470   -2.8792 N   0  0  0  0  0  0  0  0  0  0  0  0
    4.1875   -1.7947   -4.0977 C   0  0  0  0  0  0  0  0  0  0  0  0
    3.6115   -1.0776   -5.0607 N   0  0  0  0  0  0  0  0  0  0  0  0
    3.3919   -1.7018   -6.2069 C   0  0  0  0  0  0  0  0  0  0  0  0
    3.7283   -3.0240   -6.4267 C   0  0  0  0  0  0  0  0  0  0  0  0
    4.3323   -3.6926   -5.3538 C   0  0  0  0  0  0  0  0  0  0  0  0
    4.5592   -3.0718   -4.1975 N   0  0  0  0  0  0  0  0  0  0  0  0
    4.7458   -5.0738   -5.4087 C   0  0  0  0  0  0  0  0  0  0  0  0
    5.3610   -5.8343   -4.4148 C   0  0  0  0  0  0  0  0  0  0  0  0
    5.5965   -7.0835   -4.8168 N   0  0  0  0  0  0  0  0  0  0  0  0
    5.1439   -7.1547   -6.0599 C   0  0  0  0  0  0  0  0  0  0  0  0
    4.6094   -5.9273   -6.4628 N   0  0  0  0  0  0  0  0  0  0  0  0
    4.0835   -5.6978   -7.6524 N   0  0  0  0  0  0  0  0  0  0  0  0
    4.0695   -6.6921   -8.4927 C   0  0  0  0  0  0  0  0  0  0  0  0
    4.5751   -7.9762   -8.2091 C   0  0  0  0  0  0  0  0  0  0  0  0
    5.1214   -8.2120   -6.9738 C   0  0  0  0  0  0  0  0  0  0  0  0
    4.4474    7.0019   -6.3268 H   0  0  0  0  0  0  0  0  0  0  0  0
    5.8662    6.0036   -5.9333 H   0  0  0  0  0  0  0  0  0  0  0  0
    4.3733    5.2324   -6.4814 H   0  0  0  0  0  0  0  0  0  0  0  0
    2.5981    5.6013   -3.4069 H   0  0  0  0  0  0  0  0  0  0  0  0
    2.4402    6.8001   -4.7138 H   0  0  0  0  0  0  0  0  0  0  0  0
    2.5352    5.0661   -5.0891 H   0  0  0  0  0  0  0  0  0  0  0  0
    5.9999    6.9611   -3.8944 H   0  0  0  0  0  0  0  0  0  0  0  0
    4.4932    7.9041   -3.8650 H   0  0  0  0  0  0  0  0  0  0  0  0
    5.2843    7.3679   -1.5912 H   0  0  0  0  0  0  0  0  0  0  0  0
    3.7227    6.6008   -1.8932 H   0  0  0  0  0  0  0  0  0  0  0  0
    5.0011    4.4985   -2.5786 H   0  0  0  0  0  0  0  0  0  0  0  0
    6.4484    5.2426   -1.8778 H   0  0  0  0  0  0  0  0  0  0  0  0
    5.1240    5.3491    0.2187 H   0  0  0  0  0  0  0  0  0  0  0  0
    2.8288    3.0330   -3.0636 H   0  0  0  0  0  0  0  0  0  0  0  0
    3.2821    0.8185   -4.1223 H   0  0  0  0  0  0  0  0  0  0  0  0
    5.0417   -0.5248   -0.4660 H   0  0  0  0  0  0  0  0  0  0  0  0
    4.5863    1.6973    0.5580 H   0  0  0  0  0  0  0  0  0  0  0  0
    4.8952   -1.9059   -2.2496 H   0  0  0  0  0  0  0  0  0  0  0  0
    2.9231   -1.1014   -6.9761 H   0  0  0  0  0  0  0  0  0  0  0  0
    3.5414   -3.5189   -7.3626 H   0  0  0  0  0  0  0  0  0  0  0  0
    5.6316   -5.5011   -3.4333 H   0  0  0  0  0  0  0  0  0  0  0  0
    3.6314   -6.4639   -9.4526 H   0  0  0  0  0  0  0  0  0  0  0  0
    4.5264   -8.7483   -8.9590 H   0  0  0  0  0  0  0  0  0  0  0  0
    5.5280   -9.1662   -6.6819 H   0  0  0  0  0  0  0  0  0  0  0  0
  1  2  1  0
  2  3  1  0
  2  4  1  0
  4  5  1  0
  5  6  1  0
  6  7  1  0
  8  7  1  1
  8  9  2  0
  8 10  2  0
  8 11  1  0
 11 12  2  0
 12 13  1  0
 13 14  2  0
 14 15  1  0
 15 16  2  0
 14 17  1  0
 17 18  1  0
 18 19  2  0
 19 20  1  0
 20 21  2  0
 21 22  1  0
 22 23  2  0
 22 24  1  0
 24 25  2  0
 25 26  1  0
 26 27  2  0
 27 28  1  0
 28 29  1  0
 29 30  2  0
 30 31  1  0
 31 32  2  0
 16 11  1  0
 23 18  1  0
 28 24  1  0
 32 27  1  0
  1 33  1  6
  1 34  1  0
  1 35  1  0
  3 36  1  1
  3 37  1  0
  3 38  1  0
  4 39  1  6
  4 40  1  0
  5 41  1  1
  5 42  1  0
  6 43  1  6
  6 44  1  0
  7 45  1  0
 12 46  1  0
 13 47  1  0
 15 48  1  0
 16 49  1  0
 17 50  1  0
 20 51  1  0
 21 52  1  0
 25 53  1  0
 30 54  1  0
 31 55  1  0
 32 56  1  0
M  END
$$$$
