 energy: -91.992729110162 gnorm: 0.000019089327 xtb: 6.5.1 (9af7eec)
     RDKit          3D

 56 59  0  0  0  0  0  0  0  0999 V2000
    5.2305    4.3896   -0.4575 C   0  0  1  0  0  0  0  0  0  0  0  0
    3.9895    4.7932   -1.0833 N   0  0  0  0  0  0  0  0  0  0  0  0
    4.0069    6.2088   -1.3923 C   0  0  1  0  0  0  0  0  0  0  0  0
    2.8242    4.4295   -0.2912 C   0  0  1  0  0  0  0  0  0  0  0  0
    1.6152    4.1392   -1.1844 C   0  0  1  0  0  0  0  0  0  0  0  0
    1.7648    2.7921   -1.8945 C   0  0  1  0  0  0  0  0  0  0  0  0
    0.7341    2.5277   -2.8693 N   0  0  0  0  0  0  0  0  0  0  0  0
    1.0778    2.7797   -4.4779 S   0  0  1  0  0  6  0  0  0  0  0  0
    2.2015    1.9546   -4.8069 O   0  0  0  0  0  0  0  0  0  0  0  0
   -0.1636    2.5932   -5.1706 O   0  0  0  0  0  0  0  0  0  0  0  0
    1.5861    4.4885   -4.6017 C   0  0  0  0  0  0  0  0  0  0  0  0
    2.9337    4.7859   -4.6554 C   0  0  0  0  0  0  0  0  0  0  0  0
    3.3560    6.1000   -4.6840 C   0  0  0  0  0  0  0  0  0  0  0  0
    2.4117    7.1278   -4.6520 C   0  0  0  0  0  0  0  0  0  0  0  0
    1.0475    6.8121   -4.6290 C   0  0  0  0  0  0  0  0  0  0  0  0
    0.6373    5.4939   -4.5996 C   0  0  0  0  0  0  0  0  0  0  0  0
    2.7636    8.4648   -4.6495 N   0  0  0  0  0  0  0  0  0  0  0  0
    3.9774    9.0703   -4.5305 C   0  0  0  0  0  0  0  0  0  0  0  0
    3.9093   10.4080   -4.5713 N   0  0  0  0  0  0  0  0  0  0  0  0
    5.0508   11.0616   -4.4585 C   0  0  0  0  0  0  0  0  0  0  0  0
    6.2674   10.4224   -4.2988 C   0  0  0  0  0  0  0  0  0  0  0  0
    6.2335    9.0224   -4.2588 C   0  0  0  0  0  0  0  0  0  0  0  0
    5.0854    8.3578   -4.3773 N   0  0  0  0  0  0  0  0  0  0  0  0
    7.4435    8.2538   -4.0887 C   0  0  0  0  0  0  0  0  0  0  0  0
    8.7706    8.6746   -4.0091 C   0  0  0  0  0  0  0  0  0  0  0  0
    9.6115    7.6514   -3.8535 N   0  0  0  0  0  0  0  0  0  0  0  0
    8.8557    6.5626   -3.8293 C   0  0  0  0  0  0  0  0  0  0  0  0
    7.5091    6.8945   -3.9728 N   0  0  0  0  0  0  0  0  0  0  0  0
    6.5235    6.0213   -3.9779 N   0  0  0  0  0  0  0  0  0  0  0  0
    6.8411    4.7667   -3.8440 C   0  0  0  0  0  0  0  0  0  0  0  0
    8.1642    4.3005   -3.6958 C   0  0  0  0  0  0  0  0  0  0  0  0
    9.1882    5.2112   -3.6875 C   0  0  0  0  0  0  0  0  0  0  0  0
    5.3886    4.8588    0.5270 H   0  0  0  0  0  0  0  0  0  0  0  0
    5.2386    3.3074   -0.3341 H   0  0  0  0  0  0  0  0  0  0  0  0
    6.0595    4.6705   -1.1054 H   0  0  0  0  0  0  0  0  0  0  0  0
    3.0572    6.4982   -1.8354 H   0  0  0  0  0  0  0  0  0  0  0  0
    4.1775    6.8286   -0.4964 H   0  0  0  0  0  0  0  0  0  0  0  0
    4.7920    6.4101   -2.1183 H   0  0  0  0  0  0  0  0  0  0  0  0
    3.0543    3.5269    0.2800 H   0  0  0  0  0  0  0  0  0  0  0  0
    2.5683    5.2234    0.4305 H   0  0  0  0  0  0  0  0  0  0  0  0
    0.7107    4.1233   -0.5714 H   0  0  0  0  0  0  0  0  0  0  0  0
    1.5102    4.9312   -1.9270 H   0  0  0  0  0  0  0  0  0  0  0  0
    2.7128    2.7556   -2.4323 H   0  0  0  0  0  0  0  0  0  0  0  0
    1.7583    1.9850   -1.1525 H   0  0  0  0  0  0  0  0  0  0  0  0
   -0.1923    2.8303   -2.6170 H   0  0  0  0  0  0  0  0  0  0  0  0
    3.6365    3.9701   -4.6860 H   0  0  0  0  0  0  0  0  0  0  0  0
    4.4038    6.3438   -4.7060 H   0  0  0  0  0  0  0  0  0  0  0  0
    0.3152    7.6069   -4.6287 H   0  0  0  0  0  0  0  0  0  0  0  0
   -0.4087    5.2305   -4.5855 H   0  0  0  0  0  0  0  0  0  0  0  0
    2.0065    9.1330   -4.7206 H   0  0  0  0  0  0  0  0  0  0  0  0
    4.9777   12.1410   -4.4966 H   0  0  0  0  0  0  0  0  0  0  0  0
    7.1868   10.9723   -4.2061 H   0  0  0  0  0  0  0  0  0  0  0  0
    9.1482    9.6767   -4.0621 H   0  0  0  0  0  0  0  0  0  0  0  0
    6.0030    4.0872   -3.8472 H   0  0  0  0  0  0  0  0  0  0  0  0
    8.3507    3.2445   -3.5912 H   0  0  0  0  0  0  0  0  0  0  0  0
   10.2240    4.9349   -3.5775 H   0  0  0  0  0  0  0  0  0  0  0  0
  1  2  1  0
  2  3  1  0
  2  4  1  0
  4  5  1  0
  5  6  1  0
  6  7  1  0
  8  7  1  1
  8  9  2  0
  8 10  2  0
  8 11  1  0
 11 12  2  0
 12 13  1  0
 13 14  2  0
 14 15  1  0
 15 16  2  0
 14 17  1  0
 17 18  1  0
 18 19  2  0
 19 20  1  0
 20 21  2  0
 21 22  1  0
 22 23  2  0
 22 24  1  0
 24 25  2  0
 25 26  1  0
 26 27  2  0
 27 28  1  0
 28 29  1  0
 29 30  2  0
 30 31  1  0
 31 32  2  0
 16 11  1  0
 23 18  1  0
 28 24  1  0
 32 27  1  0
  1 33  1  1
  1 34  1  0
  1 35  1  0
  3 36  1  6
  3 37  1  0
  3 38  1  0
  4 39  1  1
  4 40  1  0
  5 41  1  1
  5 42  1  0
  6 43  1  6
  6 44  1  0
  7 45  1  0
 12 46  1  0
 13 47  1  0
 15 48  1  0
 16 49  1  0
 17 50  1  0
 20 51  1  0
 21 52  1  0
 25 53  1  0
 30 54  1  0
 31 55  1  0
 32 56  1  0
M  END
$$$$
