 energy: -91.992901403402 gnorm: 0.000044895787 xtb: 6.5.1 (9af7eec)
     RDKit          3D

 56 59  0  0  0  0  0  0  0  0999 V2000
    5.1325   -0.4114    1.5145 C   0  0  1  0  0  0  0  0  0  0  0  0
    5.4404   -1.6812    2.1494 N   0  0  0  0  0  0  0  0  0  0  0  0
    4.4225   -2.0332    3.1191 C   0  0  1  0  0  0  0  0  0  0  0  0
    5.6440   -2.7516    1.1805 C   0  0  1  0  0  0  0  0  0  0  0  0
    6.9572   -2.6241    0.4061 C   0  0  1  0  0  0  0  0  0  0  0  0
    8.1777   -2.6593    1.3299 C   0  0  1  0  0  0  0  0  0  0  0  0
    8.2287   -1.5540    2.2634 N   0  0  0  0  0  0  0  0  0  0  0  0
    8.7907   -0.1124    1.6336 S   0  0  1  0  0  6  0  0  0  0  0  0
    8.3426    0.1064    0.2795 O   0  0  0  0  0  0  0  0  0  0  0  0
    8.4908    0.8989    2.6051 O   0  0  0  0  0  0  0  0  0  0  0  0
   10.5435   -0.4351    1.6122 C   0  0  0  0  0  0  0  0  0  0  0  0
   11.2083   -0.5348    2.8204 C   0  0  0  0  0  0  0  0  0  0  0  0
   12.5586   -0.8148    2.8306 C   0  0  0  0  0  0  0  0  0  0  0  0
   13.2527   -1.0019    1.6287 C   0  0  0  0  0  0  0  0  0  0  0  0
   12.5666   -0.8974    0.4171 C   0  0  0  0  0  0  0  0  0  0  0  0
   11.2137   -0.6130    0.4175 C   0  0  0  0  0  0  0  0  0  0  0  0
   14.6030   -1.2823    1.7062 N   0  0  0  0  0  0  0  0  0  0  0  0
   15.5287   -1.5158    0.7365 C   0  0  0  0  0  0  0  0  0  0  0  0
   15.1978   -1.5143   -0.5532 N   0  0  0  0  0  0  0  0  0  0  0  0
   16.1783   -1.7531   -1.4111 C   0  0  0  0  0  0  0  0  0  0  0  0
   17.4807   -1.9954   -1.0227 C   0  0  0  0  0  0  0  0  0  0  0  0
   17.7288   -1.9788    0.3594 C   0  0  0  0  0  0  0  0  0  0  0  0
   16.7506   -1.7396    1.2227 N   0  0  0  0  0  0  0  0  0  0  0  0
   19.0471   -2.2194    0.8940 C   0  0  0  0  0  0  0  0  0  0  0  0
   20.2496   -2.4993    0.2481 C   0  0  0  0  0  0  0  0  0  0  0  0
   21.2547   -2.6582    1.1111 N   0  0  0  0  0  0  0  0  0  0  0  0
   20.7277   -2.4859    2.3150 C   0  0  0  0  0  0  0  0  0  0  0  0
   19.3626   -2.2126    2.2228 N   0  0  0  0  0  0  0  0  0  0  0  0
   18.5728   -1.9963    3.2540 N   0  0  0  0  0  0  0  0  0  0  0  0
   19.1205   -2.0438    4.4322 C   0  0  0  0  0  0  0  0  0  0  0  0
   20.4868   -2.3094    4.6637 C   0  0  0  0  0  0  0  0  0  0  0  0
   21.3049   -2.5346    3.5881 C   0  0  0  0  0  0  0  0  0  0  0  0
    5.9574   -0.1024    0.8769 H   0  0  0  0  0  0  0  0  0  0  0  0
    4.2119   -0.4619    0.9134 H   0  0  0  0  0  0  0  0  0  0  0  0
    5.0072    0.3464    2.2862 H   0  0  0  0  0  0  0  0  0  0  0  0
    3.4342   -2.1904    2.6604 H   0  0  0  0  0  0  0  0  0  0  0  0
    4.7143   -2.9465    3.6370 H   0  0  0  0  0  0  0  0  0  0  0  0
    4.3400   -1.2317    3.8516 H   0  0  0  0  0  0  0  0  0  0  0  0
    5.6624   -3.6948    1.7358 H   0  0  0  0  0  0  0  0  0  0  0  0
    4.8053   -2.8006    0.4628 H   0  0  0  0  0  0  0  0  0  0  0  0
    7.0215   -3.4565   -0.2977 H   0  0  0  0  0  0  0  0  0  0  0  0
    6.9828   -1.6957   -0.1622 H   0  0  0  0  0  0  0  0  0  0  0  0
    8.1801   -3.5860    1.9142 H   0  0  0  0  0  0  0  0  0  0  0  0
    9.0956   -2.6220    0.7371 H   0  0  0  0  0  0  0  0  0  0  0  0
    7.3094   -1.4200    2.6884 H   0  0  0  0  0  0  0  0  0  0  0  0
   10.6532   -0.3820    3.7313 H   0  0  0  0  0  0  0  0  0  0  0  0
   13.0905   -0.8910    3.7681 H   0  0  0  0  0  0  0  0  0  0  0  0
   13.1076   -1.0391   -0.5031 H   0  0  0  0  0  0  0  0  0  0  0  0
   10.6622   -0.5161   -0.5047 H   0  0  0  0  0  0  0  0  0  0  0  0
   15.0080   -1.3195    2.6335 H   0  0  0  0  0  0  0  0  0  0  0  0
   15.8893   -1.7466   -2.4543 H   0  0  0  0  0  0  0  0  0  0  0  0
   18.2604   -2.1862   -1.7383 H   0  0  0  0  0  0  0  0  0  0  0  0
   20.4249   -2.5918   -0.8057 H   0  0  0  0  0  0  0  0  0  0  0  0
   18.4437   -1.8613    5.2531 H   0  0  0  0  0  0  0  0  0  0  0  0
   20.8659   -2.3317    5.6723 H   0  0  0  0  0  0  0  0  0  0  0  0
   22.3580   -2.7441    3.6799 H   0  0  0  0  0  0  0  0  0  0  0  0
  1  2  1  0
  2  3  1  0
  2  4  1  0
  4  5  1  0
  5  6  1  0
  6  7  1  0
  8  7  1  1
  8  9  2  0
  8 10  2  0
  8 11  1  0
 11 12  2  0
 12 13  1  0
 13 14  2  0
 14 15  1  0
 15 16  2  0
 14 17  1  0
 17 18  1  0
 18 19  2  0
 19 20  1  0
 20 21  2  0
 21 22  1  0
 22 23  2  0
 22 24  1  0
 24 25  2  0
 25 26  1  0
 26 27  2  0
 27 28  1  0
 28 29  1  0
 29 30  2  0
 30 31  1  0
 31 32  2  0
 16 11  1  0
 23 18  1  0
 28 24  1  0
 32 27  1  0
  1 33  1  6
  1 34  1  0
  1 35  1  0
  3 36  1  6
  3 37  1  0
  3 38  1  0
  4 39  1  1
  4 40  1  0
  5 41  1  6
  5 42  1  0
  6 43  1  1
  6 44  1  0
  7 45  1  0
 12 46  1  0
 13 47  1  0
 15 48  1  0
 16 49  1  0
 17 50  1  0
 20 51  1  0
 21 52  1  0
 25 53  1  0
 30 54  1  0
 31 55  1  0
 32 56  1  0
M  END
$$$$
