 energy: -91.990133968705 gnorm: 0.000033228423 xtb: 6.5.1 (9af7eec)
     RDKit          3D

 56 59  0  0  0  0  0  0  0  0999 V2000
   -6.0878   -5.8619   -9.5699 C   0  0  1  0  0  0  0  0  0  0  0  0
   -5.1228   -4.7800   -9.5446 N   0  0  0  0  0  0  0  0  0  0  0  0
   -5.4811   -3.8092   -8.5320 C   0  0  1  0  0  0  0  0  0  0  0  0
   -3.7715   -5.2986   -9.3844 C   0  0  1  0  0  0  0  0  0  0  0  0
   -2.6893   -4.2312   -9.5950 C   0  0  1  0  0  0  0  0  0  0  0  0
   -2.0684   -3.7297   -8.2880 C   0  0  1  0  0  0  0  0  0  0  0  0
   -1.3976   -4.8055   -7.5911 N   0  0  0  0  0  0  0  0  0  0  0  0
   -1.3705   -4.7196   -5.9217 S   0  0  1  0  0  6  0  0  0  0  0  0
   -0.3910   -5.6731   -5.4914 O   0  0  0  0  0  0  0  0  0  0  0  0
   -1.2559   -3.3600   -5.4698 O   0  0  0  0  0  0  0  0  0  0  0  0
   -3.0150   -5.3073   -5.5747 C   0  0  0  0  0  0  0  0  0  0  0  0
   -3.9424   -4.4836   -4.9676 C   0  0  0  0  0  0  0  0  0  0  0  0
   -5.2453   -4.9193   -4.8195 C   0  0  0  0  0  0  0  0  0  0  0  0
   -5.6274   -6.1752   -5.3028 C   0  0  0  0  0  0  0  0  0  0  0  0
   -4.6653   -7.0133   -5.8726 C   0  0  0  0  0  0  0  0  0  0  0  0
   -3.3632   -6.5735   -6.0075 C   0  0  0  0  0  0  0  0  0  0  0  0
   -6.9539   -6.5487   -5.1867 N   0  0  0  0  0  0  0  0  0  0  0  0
   -7.6534   -7.4724   -5.9051 C   0  0  0  0  0  0  0  0  0  0  0  0
   -8.9411   -7.5772   -5.5555 N   0  0  0  0  0  0  0  0  0  0  0  0
   -9.6642   -8.4499   -6.2330 C   0  0  0  0  0  0  0  0  0  0  0  0
   -9.1500   -9.2152   -7.2668 C   0  0  0  0  0  0  0  0  0  0  0  0
   -7.7993   -9.0168   -7.5678 C   0  0  0  0  0  0  0  0  0  0  0  0
   -7.0561   -8.1505   -6.8744 N   0  0  0  0  0  0  0  0  0  0  0  0
   -7.1071   -9.6985   -8.6338 C   0  0  0  0  0  0  0  0  0  0  0  0
   -5.7854   -9.5436   -9.0524 C   0  0  0  0  0  0  0  0  0  0  0  0
   -5.4961  -10.3323  -10.0877 N   0  0  0  0  0  0  0  0  0  0  0  0
   -6.6065  -11.0041  -10.3538 C   0  0  0  0  0  0  0  0  0  0  0  0
   -7.6284  -10.6372   -9.4738 N   0  0  0  0  0  0  0  0  0  0  0  0
   -8.8489  -11.1413   -9.4965 N   0  0  0  0  0  0  0  0  0  0  0  0
   -9.0991  -12.0390  -10.4057 C   0  0  0  0  0  0  0  0  0  0  0  0
   -8.1574  -12.4940  -11.3497 C   0  0  0  0  0  0  0  0  0  0  0  0
   -6.8912  -11.9688  -11.3243 C   0  0  0  0  0  0  0  0  0  0  0  0
   -5.8280   -6.5594  -10.3650 H   0  0  0  0  0  0  0  0  0  0  0  0
   -6.1376   -6.4150   -8.6192 H   0  0  0  0  0  0  0  0  0  0  0  0
   -7.0738   -5.4498   -9.7829 H   0  0  0  0  0  0  0  0  0  0  0  0
   -5.4170   -4.2171   -7.5108 H   0  0  0  0  0  0  0  0  0  0  0  0
   -4.8314   -2.9406   -8.6068 H   0  0  0  0  0  0  0  0  0  0  0  0
   -6.5051   -3.4817   -8.7104 H   0  0  0  0  0  0  0  0  0  0  0  0
   -3.6288   -5.7632   -8.3948 H   0  0  0  0  0  0  0  0  0  0  0  0
   -3.6517   -6.0789  -10.1397 H   0  0  0  0  0  0  0  0  0  0  0  0
   -1.8880   -4.6498  -10.2056 H   0  0  0  0  0  0  0  0  0  0  0  0
   -3.1183   -3.3912  -10.1411 H   0  0  0  0  0  0  0  0  0  0  0  0
   -1.3848   -2.8963   -8.4952 H   0  0  0  0  0  0  0  0  0  0  0  0
   -2.8367   -3.3678   -7.6035 H   0  0  0  0  0  0  0  0  0  0  0  0
   -0.5049   -5.0723   -7.9741 H   0  0  0  0  0  0  0  0  0  0  0  0
   -3.6298   -3.5072   -4.6327 H   0  0  0  0  0  0  0  0  0  0  0  0
   -5.9811   -4.2817   -4.3513 H   0  0  0  0  0  0  0  0  0  0  0  0
   -4.9603   -7.9889   -6.2190 H   0  0  0  0  0  0  0  0  0  0  0  0
   -2.6015   -7.1988   -6.4453 H   0  0  0  0  0  0  0  0  0  0  0  0
   -7.5386   -5.9951   -4.5747 H   0  0  0  0  0  0  0  0  0  0  0  0
  -10.7012   -8.5290   -5.9327 H   0  0  0  0  0  0  0  0  0  0  0  0
   -9.7502   -9.9184   -7.8154 H   0  0  0  0  0  0  0  0  0  0  0  0
   -5.0518   -8.8844   -8.6340 H   0  0  0  0  0  0  0  0  0  0  0  0
  -10.1068  -12.4259  -10.3907 H   0  0  0  0  0  0  0  0  0  0  0  0
   -8.4417  -13.2416  -12.0715 H   0  0  0  0  0  0  0  0  0  0  0  0
   -6.1164  -12.2655  -12.0120 H   0  0  0  0  0  0  0  0  0  0  0  0
  1  2  1  0
  2  3  1  0
  2  4  1  0
  4  5  1  0
  5  6  1  0
  6  7  1  0
  8  7  1  6
  8  9  2  0
  8 10  2  0
  8 11  1  0
 11 12  2  0
 12 13  1  0
 13 14  2  0
 14 15  1  0
 15 16  2  0
 14 17  1  0
 17 18  1  0
 18 19  2  0
 19 20  1  0
 20 21  2  0
 21 22  1  0
 22 23  2  0
 22 24  1  0
 24 25  2  0
 25 26  1  0
 26 27  2  0
 27 28  1  0
 28 29  1  0
 29 30  2  0
 30 31  1  0
 31 32  2  0
 16 11  1  0
 23 18  1  0
 28 24  1  0
 32 27  1  0
  1 33  1  6
  1 34  1  0
  1 35  1  0
  3 36  1  1
  3 37  1  0
  3 38  1  0
  4 39  1  1
  4 40  1  0
  5 41  1  6
  5 42  1  0
  6 43  1  6
  6 44  1  0
  7 45  1  0
 12 46  1  0
 13 47  1  0
 15 48  1  0
 16 49  1  0
 17 50  1  0
 20 51  1  0
 21 52  1  0
 25 53  1  0
 30 54  1  0
 31 55  1  0
 32 56  1  0
M  END
$$$$
