 energy: -91.991643542087 gnorm: 0.000020778937 xtb: 6.5.1 (9af7eec)
     RDKit          3D

 56 59  0  0  0  0  0  0  0  0999 V2000
    7.6563   -0.9336   -0.1550 C   0  0  1  0  0  0  0  0  0  0  0  0
    6.2963   -1.3623   -0.4246 N   0  0  0  0  0  0  0  0  0  0  0  0
    6.2339   -2.2142   -1.5936 C   0  0  1  0  0  0  0  0  0  0  0  0
    5.6976   -1.9895    0.7469 C   0  0  1  0  0  0  0  0  0  0  0  0
    4.1669   -2.0277    0.6950 C   0  0  1  0  0  0  0  0  0  0  0  0
    3.5511   -0.6774    0.2757 C   0  0  1  0  0  0  0  0  0  0  0  0
    4.3828    0.4717    0.5572 N   0  0  0  0  0  0  0  0  0  0  0  0
    4.6691    0.8398    2.1668 S   0  0  1  0  0  6  0  0  0  0  0  0
    4.0395   -0.1223    3.0308 O   0  0  0  0  0  0  0  0  0  0  0  0
    6.0816    1.0736    2.3156 O   0  0  0  0  0  0  0  0  0  0  0  0
    3.8025    2.3901    2.3126 C   0  0  0  0  0  0  0  0  0  0  0  0
    4.3607    3.5342    1.7737 C   0  0  0  0  0  0  0  0  0  0  0  0
    3.6712    4.7265    1.8530 C   0  0  0  0  0  0  0  0  0  0  0  0
    2.4177    4.7808    2.4750 C   0  0  0  0  0  0  0  0  0  0  0  0
    1.8679    3.6187    3.0196 C   0  0  0  0  0  0  0  0  0  0  0  0
    2.5672    2.4302    2.9288 C   0  0  0  0  0  0  0  0  0  0  0  0
    1.7782    6.0055    2.5176 N   0  0  0  0  0  0  0  0  0  0  0  0
    0.5809    6.3800    3.0451 C   0  0  0  0  0  0  0  0  0  0  0  0
    0.3071    7.6801    2.8653 N   0  0  0  0  0  0  0  0  0  0  0  0
   -0.8407    8.1153    3.3504 C   0  0  0  0  0  0  0  0  0  0  0  0
   -1.7318    7.2934    4.0170 C   0  0  0  0  0  0  0  0  0  0  0  0
   -1.3541    5.9515    4.1572 C   0  0  0  0  0  0  0  0  0  0  0  0
   -0.1997    5.5054    3.6657 N   0  0  0  0  0  0  0  0  0  0  0  0
   -2.2064    5.0089    4.8422 C   0  0  0  0  0  0  0  0  0  0  0  0
   -3.4924    5.1739    5.3551 C   0  0  0  0  0  0  0  0  0  0  0  0
   -3.9498    4.0596    5.9275 N   0  0  0  0  0  0  0  0  0  0  0  0
   -2.9803    3.1647    5.8007 C   0  0  0  0  0  0  0  0  0  0  0  0
   -1.8867    3.7132    5.1311 N   0  0  0  0  0  0  0  0  0  0  0  0
   -0.7738    3.0621    4.8651 N   0  0  0  0  0  0  0  0  0  0  0  0
   -0.7032    1.8249    5.2596 C   0  0  0  0  0  0  0  0  0  0  0  0
   -1.7381    1.1531    5.9433 C   0  0  0  0  0  0  0  0  0  0  0  0
   -2.8960    1.8322    6.2180 C   0  0  0  0  0  0  0  0  0  0  0  0
    7.6522   -0.2443    0.6888 H   0  0  0  0  0  0  0  0  0  0  0  0
    8.3272   -1.7746    0.0761 H   0  0  0  0  0  0  0  0  0  0  0  0
    8.0433   -0.4143   -1.0317 H   0  0  0  0  0  0  0  0  0  0  0  0
    6.7993   -3.1508   -1.4638 H   0  0  0  0  0  0  0  0  0  0  0  0
    5.1968   -2.4620   -1.8091 H   0  0  0  0  0  0  0  0  0  0  0  0
    6.6448   -1.6778   -2.4483 H   0  0  0  0  0  0  0  0  0  0  0  0
    6.0767   -3.0161    0.8930 H   0  0  0  0  0  0  0  0  0  0  0  0
    5.9885   -1.4020    1.6204 H   0  0  0  0  0  0  0  0  0  0  0  0
    3.8198   -2.8033    0.0103 H   0  0  0  0  0  0  0  0  0  0  0  0
    3.8243   -2.2818    1.6981 H   0  0  0  0  0  0  0  0  0  0  0  0
    3.3608   -0.6661   -0.8006 H   0  0  0  0  0  0  0  0  0  0  0  0
    2.6049   -0.5243    0.7979 H   0  0  0  0  0  0  0  0  0  0  0  0
    5.2653    0.3763    0.0636 H   0  0  0  0  0  0  0  0  0  0  0  0
    5.3323    3.4740    1.3108 H   0  0  0  0  0  0  0  0  0  0  0  0
    4.0983    5.6275    1.4364 H   0  0  0  0  0  0  0  0  0  0  0  0
    0.9101    3.6646    3.5111 H   0  0  0  0  0  0  0  0  0  0  0  0
    2.1732    1.5156    3.3420 H   0  0  0  0  0  0  0  0  0  0  0  0
    2.2646    6.7812    2.0857 H   0  0  0  0  0  0  0  0  0  0  0  0
   -1.0455    9.1671    3.1958 H   0  0  0  0  0  0  0  0  0  0  0  0
   -2.6597    7.6675    4.4110 H   0  0  0  0  0  0  0  0  0  0  0  0
   -4.1052    6.0535    5.3265 H   0  0  0  0  0  0  0  0  0  0  0  0
    0.2261    1.3283    5.0264 H   0  0  0  0  0  0  0  0  0  0  0  0
   -1.6061    0.1252    6.2383 H   0  0  0  0  0  0  0  0  0  0  0  0
   -3.7314    1.3910    6.7364 H   0  0  0  0  0  0  0  0  0  0  0  0
  1  2  1  0
  2  3  1  0
  2  4  1  0
  4  5  1  0
  5  6  1  0
  6  7  1  0
  8  7  1  6
  8  9  2  0
  8 10  2  0
  8 11  1  0
 11 12  2  0
 12 13  1  0
 13 14  2  0
 14 15  1  0
 15 16  2  0
 14 17  1  0
 17 18  1  0
 18 19  2  0
 19 20  1  0
 20 21  2  0
 21 22  1  0
 22 23  2  0
 22 24  1  0
 24 25  2  0
 25 26  1  0
 26 27  2  0
 27 28  1  0
 28 29  1  0
 29 30  2  0
 30 31  1  0
 31 32  2  0
 16 11  1  0
 23 18  1  0
 28 24  1  0
 32 27  1  0
  1 33  1  1
  1 34  1  0
  1 35  1  0
  3 36  1  1
  3 37  1  0
  3 38  1  0
  4 39  1  1
  4 40  1  0
  5 41  1  6
  5 42  1  0
  6 43  1  6
  6 44  1  0
  7 45  1  0
 12 46  1  0
 13 47  1  0
 15 48  1  0
 16 49  1  0
 17 50  1  0
 20 51  1  0
 21 52  1  0
 25 53  1  0
 30 54  1  0
 31 55  1  0
 32 56  1  0
M  END
$$$$
