 energy: -91.988252663220 gnorm: 0.000043948416 xtb: 6.5.1 (9af7eec)
     RDKit          3D

 56 59  0  0  0  0  0  0  0  0999 V2000
    8.8570    1.2200    1.5084 C   0  0  1  0  0  0  0  0  0  0  0  0
    8.5964    0.0845    0.6488 N   0  0  0  0  0  0  0  0  0  0  0  0
    9.6649   -0.8875    0.7476 C   0  0  1  0  0  0  0  0  0  0  0  0
    7.2973   -0.5188    0.9102 C   0  0  1  0  0  0  0  0  0  0  0  0
    6.1437    0.3156    0.3548 C   0  0  1  0  0  0  0  0  0  0  0  0
    6.2979    0.5361   -1.1502 C   0  0  1  0  0  0  0  0  0  0  0  0
    5.2511    1.3447   -1.7366 N   0  0  0  0  0  0  0  0  0  0  0  0
    3.7885    0.5735   -2.0215 S   0  0  1  0  0  6  0  0  0  0  0  0
    3.4771   -0.3852   -0.9948 O   0  0  0  0  0  0  0  0  0  0  0  0
    2.8418    1.6187   -2.2818 O   0  0  0  0  0  0  0  0  0  0  0  0
    4.1819   -0.2923   -3.5256 C   0  0  0  0  0  0  0  0  0  0  0  0
    4.3594   -1.6621   -3.5183 C   0  0  0  0  0  0  0  0  0  0  0  0
    4.6988   -2.3228   -4.6839 C   0  0  0  0  0  0  0  0  0  0  0  0
    4.8591   -1.6005   -5.8683 C   0  0  0  0  0  0  0  0  0  0  0  0
    4.6705   -0.2126   -5.8582 C   0  0  0  0  0  0  0  0  0  0  0  0
    4.3353    0.4379   -4.6893 C   0  0  0  0  0  0  0  0  0  0  0  0
    5.1958   -2.1912   -7.0707 N   0  0  0  0  0  0  0  0  0  0  0  0
    5.4426   -3.4915   -7.3945 C   0  0  0  0  0  0  0  0  0  0  0  0
    5.3924   -4.4492   -6.4706 N   0  0  0  0  0  0  0  0  0  0  0  0
    5.6472   -5.6800   -6.8849 C   0  0  0  0  0  0  0  0  0  0  0  0
    5.9538   -5.9899   -8.1962 C   0  0  0  0  0  0  0  0  0  0  0  0
    5.9851   -4.9135   -9.0925 C   0  0  0  0  0  0  0  0  0  0  0  0
    5.7292   -3.6717   -8.6845 N   0  0  0  0  0  0  0  0  0  0  0  0
    6.2894   -5.0564  -10.4956 C   0  0  0  0  0  0  0  0  0  0  0  0
    6.3476   -4.0660  -11.4754 C   0  0  0  0  0  0  0  0  0  0  0  0
    6.6601   -4.5655  -12.6714 N   0  0  0  0  0  0  0  0  0  0  0  0
    6.8080   -5.8697  -12.4912 C   0  0  0  0  0  0  0  0  0  0  0  0
    6.5861   -6.2126  -11.1541 N   0  0  0  0  0  0  0  0  0  0  0  0
    6.6638   -7.4417  -10.6771 N   0  0  0  0  0  0  0  0  0  0  0  0
    6.9678   -8.3842  -11.5222 C   0  0  0  0  0  0  0  0  0  0  0  0
    7.2143   -8.1700  -12.8927 C   0  0  0  0  0  0  0  0  0  0  0  0
    7.1333   -6.8931  -13.3857 C   0  0  0  0  0  0  0  0  0  0  0  0
    8.0880    1.9750    1.3649 H   0  0  0  0  0  0  0  0  0  0  0  0
    8.8846    0.9450    2.5754 H   0  0  0  0  0  0  0  0  0  0  0  0
    9.8179    1.6560    1.2384 H   0  0  0  0  0  0  0  0  0  0  0  0
    9.7570   -1.3226    1.7555 H   0  0  0  0  0  0  0  0  0  0  0  0
    9.4871   -1.6921    0.0357 H   0  0  0  0  0  0  0  0  0  0  0  0
   10.6076   -0.4043    0.4938 H   0  0  0  0  0  0  0  0  0  0  0  0
    7.2806   -1.4934    0.4167 H   0  0  0  0  0  0  0  0  0  0  0  0
    7.1405   -0.6850    1.9909 H   0  0  0  0  0  0  0  0  0  0  0  0
    5.2032   -0.2039    0.5413 H   0  0  0  0  0  0  0  0  0  0  0  0
    6.0968    1.2849    0.8551 H   0  0  0  0  0  0  0  0  0  0  0  0
    7.2622    1.0099   -1.3534 H   0  0  0  0  0  0  0  0  0  0  0  0
    6.2682   -0.4229   -1.6721 H   0  0  0  0  0  0  0  0  0  0  0  0
    5.1024    2.2250   -1.2662 H   0  0  0  0  0  0  0  0  0  0  0  0
    4.2172   -2.1975   -2.5927 H   0  0  0  0  0  0  0  0  0  0  0  0
    4.8411   -3.3900   -4.7003 H   0  0  0  0  0  0  0  0  0  0  0  0
    4.7887    0.3467   -6.7752 H   0  0  0  0  0  0  0  0  0  0  0  0
    4.1789    1.5037   -4.6584 H   0  0  0  0  0  0  0  0  0  0  0  0
    5.2703   -1.5743   -7.8696 H   0  0  0  0  0  0  0  0  0  0  0  0
    5.6001   -6.4432   -6.1185 H   0  0  0  0  0  0  0  0  0  0  0  0
    6.1582   -6.9948   -8.5186 H   0  0  0  0  0  0  0  0  0  0  0  0
    6.1708   -3.0188  -11.3344 H   0  0  0  0  0  0  0  0  0  0  0  0
    7.0211   -9.3734  -11.0929 H   0  0  0  0  0  0  0  0  0  0  0  0
    7.4605   -9.0038  -13.5290 H   0  0  0  0  0  0  0  0  0  0  0  0
    7.3080   -6.6491  -14.4207 H   0  0  0  0  0  0  0  0  0  0  0  0
  1  2  1  0
  2  3  1  0
  2  4  1  0
  4  5  1  0
  5  6  1  0
  6  7  1  0
  8  7  1  1
  8  9  2  0
  8 10  2  0
  8 11  1  0
 11 12  2  0
 12 13  1  0
 13 14  2  0
 14 15  1  0
 15 16  2  0
 14 17  1  0
 17 18  1  0
 18 19  2  0
 19 20  1  0
 20 21  2  0
 21 22  1  0
 22 23  2  0
 22 24  1  0
 24 25  2  0
 25 26  1  0
 26 27  2  0
 27 28  1  0
 28 29  1  0
 29 30  2  0
 30 31  1  0
 31 32  2  0
 16 11  1  0
 23 18  1  0
 28 24  1  0
 32 27  1  0
  1 33  1  1
  1 34  1  0
  1 35  1  0
  3 36  1  1
  3 37  1  0
  3 38  1  0
  4 39  1  6
  4 40  1  0
  5 41  1  6
  5 42  1  0
  6 43  1  1
  6 44  1  0
  7 45  1  0
 12 46  1  0
 13 47  1  0
 15 48  1  0
 16 49  1  0
 17 50  1  0
 20 51  1  0
 21 52  1  0
 25 53  1  0
 30 54  1  0
 31 55  1  0
 32 56  1  0
M  END
$$$$
