 energy: -91.989139589981 gnorm: 0.000026566411 xtb: 6.5.1 (9af7eec)
     RDKit          3D

 56 59  0  0  0  0  0  0  0  0999 V2000
    6.9218   -1.7388    3.2557 C   0  0  1  0  0  0  0  0  0  0  0  0
    6.2917   -0.4940    2.8646 N   0  0  0  0  0  0  0  0  0  0  0  0
    7.1202    0.6348    3.2349 C   0  0  1  0  0  0  0  0  0  0  0  0
    5.9770   -0.5079    1.4449 C   0  0  1  0  0  0  0  0  0  0  0  0
    5.0699    0.6432    1.0143 C   0  0  1  0  0  0  0  0  0  0  0  0
    4.5275    0.4203   -0.4008 C   0  0  1  0  0  0  0  0  0  0  0  0
    5.5927    0.3462   -1.3755 N   0  0  0  0  0  0  0  0  0  0  0  0
    5.6386   -0.9361   -2.4441 S   0  0  1  0  0  6  0  0  0  0  0  0
    4.3205   -1.4713   -2.6414 O   0  0  0  0  0  0  0  0  0  0  0  0
    6.3879   -0.4791   -3.5784 O   0  0  0  0  0  0  0  0  0  0  0  0
    6.6024   -2.0955   -1.4988 C   0  0  0  0  0  0  0  0  0  0  0  0
    5.9743   -3.1014   -0.7910 C   0  0  0  0  0  0  0  0  0  0  0  0
    6.7028   -3.9037    0.0664 C   0  0  0  0  0  0  0  0  0  0  0  0
    8.0750   -3.6923    0.2155 C   0  0  0  0  0  0  0  0  0  0  0  0
    8.7037   -2.6975   -0.5435 C   0  0  0  0  0  0  0  0  0  0  0  0
    7.9658   -1.8962   -1.3902 C   0  0  0  0  0  0  0  0  0  0  0  0
    8.8576   -4.4294    1.0831 N   0  0  0  0  0  0  0  0  0  0  0  0
    8.5132   -5.3188    2.0564 C   0  0  0  0  0  0  0  0  0  0  0  0
    7.2365   -5.6204    2.2845 N   0  0  0  0  0  0  0  0  0  0  0  0
    7.0023   -6.4860    3.2581 C   0  0  0  0  0  0  0  0  0  0  0  0
    8.0038   -7.0666    4.0125 C   0  0  0  0  0  0  0  0  0  0  0  0
    9.3143   -6.6859    3.6952 C   0  0  0  0  0  0  0  0  0  0  0  0
    9.5589   -5.8112    2.7208 N   0  0  0  0  0  0  0  0  0  0  0  0
   10.4777   -7.1957    4.3790 C   0  0  0  0  0  0  0  0  0  0  0  0
   11.8195   -6.8918    4.1521 C   0  0  0  0  0  0  0  0  0  0  0  0
   12.6281   -7.5575    4.9769 N   0  0  0  0  0  0  0  0  0  0  0  0
   11.8367   -8.2948    5.7422 C   0  0  0  0  0  0  0  0  0  0  0  0
   10.4953   -8.0973    5.4016 N   0  0  0  0  0  0  0  0  0  0  0  0
    9.4796   -8.6988    5.9936 N   0  0  0  0  0  0  0  0  0  0  0  0
    9.7647   -9.5280    6.9558 C   0  0  0  0  0  0  0  0  0  0  0  0
   11.0731   -9.8141    7.3931 C   0  0  0  0  0  0  0  0  0  0  0  0
   12.1261   -9.1880    6.7774 C   0  0  0  0  0  0  0  0  0  0  0  0
    6.2661   -2.5726    3.0108 H   0  0  0  0  0  0  0  0  0  0  0  0
    7.8889   -1.9021    2.7529 H   0  0  0  0  0  0  0  0  0  0  0  0
    7.0872   -1.7301    4.3322 H   0  0  0  0  0  0  0  0  0  0  0  0
    8.0706    0.6618    2.6775 H   0  0  0  0  0  0  0  0  0  0  0  0
    6.5797    1.5605    3.0524 H   0  0  0  0  0  0  0  0  0  0  0  0
    7.3438    0.5753    4.2990 H   0  0  0  0  0  0  0  0  0  0  0  0
    6.8927   -0.4975    0.8275 H   0  0  0  0  0  0  0  0  0  0  0  0
    5.4540   -1.4459    1.2440 H   0  0  0  0  0  0  0  0  0  0  0  0
    4.2323    0.7139    1.7088 H   0  0  0  0  0  0  0  0  0  0  0  0
    5.6165    1.5866    1.0327 H   0  0  0  0  0  0  0  0  0  0  0  0
    3.9956   -0.5315   -0.4572 H   0  0  0  0  0  0  0  0  0  0  0  0
    3.8190    1.2174   -0.6531 H   0  0  0  0  0  0  0  0  0  0  0  0
    5.8709    1.2135   -1.8010 H   0  0  0  0  0  0  0  0  0  0  0  0
    4.9134   -3.2429   -0.9239 H   0  0  0  0  0  0  0  0  0  0  0  0
    6.2294   -4.6821    0.6401 H   0  0  0  0  0  0  0  0  0  0  0  0
    9.7702   -2.5500   -0.4490 H   0  0  0  0  0  0  0  0  0  0  0  0
    8.4251   -1.1142   -1.9731 H   0  0  0  0  0  0  0  0  0  0  0  0
    9.8548   -4.2599    1.0488 H   0  0  0  0  0  0  0  0  0  0  0  0
    5.9584   -6.7158    3.4291 H   0  0  0  0  0  0  0  0  0  0  0  0
    7.7990   -7.7706    4.7987 H   0  0  0  0  0  0  0  0  0  0  0  0
   12.2040   -6.2139    3.4170 H   0  0  0  0  0  0  0  0  0  0  0  0
    8.9074   -9.9985    7.4133 H   0  0  0  0  0  0  0  0  0  0  0  0
   11.2275  -10.5142    8.1974 H   0  0  0  0  0  0  0  0  0  0  0  0
   13.1541   -9.3543    7.0545 H   0  0  0  0  0  0  0  0  0  0  0  0
  1  2  1  0
  2  3  1  0
  2  4  1  0
  4  5  1  0
  5  6  1  0
  6  7  1  0
  8  7  1  1
  8  9  2  0
  8 10  2  0
  8 11  1  0
 11 12  2  0
 12 13  1  0
 13 14  2  0
 14 15  1  0
 15 16  2  0
 14 17  1  0
 17 18  1  0
 18 19  2  0
 19 20  1  0
 20 21  2  0
 21 22  1  0
 22 23  2  0
 22 24  1  0
 24 25  2  0
 25 26  1  0
 26 27  2  0
 27 28  1  0
 28 29  1  0
 29 30  2  0
 30 31  1  0
 31 32  2  0
 16 11  1  0
 23 18  1  0
 28 24  1  0
 32 27  1  0
  1 33  1  1
  1 34  1  0
  1 35  1  0
  3 36  1  6
  3 37  1  0
  3 38  1  0
  4 39  1  6
  4 40  1  0
  5 41  1  1
  5 42  1  0
  6 43  1  1
  6 44  1  0
  7 45  1  0
 12 46  1  0
 13 47  1  0
 15 48  1  0
 16 49  1  0
 17 50  1  0
 20 51  1  0
 21 52  1  0
 25 53  1  0
 30 54  1  0
 31 55  1  0
 32 56  1  0
M  END
$$$$
