 energy: -91.991782672164 gnorm: 0.000035043246 xtb: 6.5.1 (9af7eec)
     RDKit          3D

 56 59  0  0  0  0  0  0  0  0999 V2000
    8.3138   -6.0522    2.4035 C   0  0  1  0  0  0  0  0  0  0  0  0
    7.4279   -5.4170    1.4503 N   0  0  0  0  0  0  0  0  0  0  0  0
    6.1445   -5.1352    2.0604 C   0  0  1  0  0  0  0  0  0  0  0  0
    8.0490   -4.2315    0.8813 C   0  0  1  0  0  0  0  0  0  0  0  0
    7.2987   -3.6773   -0.3298 C   0  0  1  0  0  0  0  0  0  0  0  0
    7.1919   -4.7156   -1.4445 C   0  0  1  0  0  0  0  0  0  0  0  0
    8.4920   -5.0097   -2.0083 N   0  0  0  0  0  0  0  0  0  0  0  0
    8.6515   -6.4966   -2.7622 S   0  0  1  0  0  6  0  0  0  0  0  0
    7.4048   -6.9082   -3.3465 O   0  0  0  0  0  0  0  0  0  0  0  0
    9.8067   -6.3924   -3.6073 O   0  0  0  0  0  0  0  0  0  0  0  0
    9.0156   -7.5197   -1.3533 C   0  0  0  0  0  0  0  0  0  0  0  0
   10.3201   -7.5965   -0.9046 C   0  0  0  0  0  0  0  0  0  0  0  0
   10.6050   -8.3184    0.2367 C   0  0  0  0  0  0  0  0  0  0  0  0
    9.5763   -8.9459    0.9473 C   0  0  0  0  0  0  0  0  0  0  0  0
    8.2701   -8.8870    0.4594 C   0  0  0  0  0  0  0  0  0  0  0  0
    7.9955   -8.1724   -0.6898 C   0  0  0  0  0  0  0  0  0  0  0  0
    9.9026   -9.6227    2.1105 N   0  0  0  0  0  0  0  0  0  0  0  0
    9.1076   -9.9623    3.1622 C   0  0  0  0  0  0  0  0  0  0  0  0
    9.7471  -10.5977    4.1529 N   0  0  0  0  0  0  0  0  0  0  0  0
    9.0186  -10.9390    5.1995 C   0  0  0  0  0  0  0  0  0  0  0  0
    7.6662  -10.6557    5.3041 C   0  0  0  0  0  0  0  0  0  0  0  0
    7.0970   -9.9730    4.2255 C   0  0  0  0  0  0  0  0  0  0  0  0
    7.8227   -9.6365    3.1570 N   0  0  0  0  0  0  0  0  0  0  0  0
    5.7135   -9.5672    4.1698 C   0  0  0  0  0  0  0  0  0  0  0  0
    5.0587   -8.8603    3.1613 C   0  0  0  0  0  0  0  0  0  0  0  0
    3.7759   -8.6465    3.4568 N   0  0  0  0  0  0  0  0  0  0  0  0
    3.5781   -9.2063    4.6410 C   0  0  0  0  0  0  0  0  0  0  0  0
    4.7577   -9.7869    5.1164 N   0  0  0  0  0  0  0  0  0  0  0  0
    4.8658  -10.4192    6.2708 N   0  0  0  0  0  0  0  0  0  0  0  0
    3.7914  -10.4991    7.0015 C   0  0  0  0  0  0  0  0  0  0  0  0
    2.5430   -9.9574    6.6362 C   0  0  0  0  0  0  0  0  0  0  0  0
    2.4338   -9.2998    5.4381 C   0  0  0  0  0  0  0  0  0  0  0  0
    9.2645   -6.2701    1.9200 H   0  0  0  0  0  0  0  0  0  0  0  0
    8.5060   -5.4223    3.2880 H   0  0  0  0  0  0  0  0  0  0  0  0
    7.8727   -6.9921    2.7332 H   0  0  0  0  0  0  0  0  0  0  0  0
    6.2097   -4.3592    2.8409 H   0  0  0  0  0  0  0  0  0  0  0  0
    5.4367   -4.8093    1.3019 H   0  0  0  0  0  0  0  0  0  0  0  0
    5.7586   -6.0461    2.5138 H   0  0  0  0  0  0  0  0  0  0  0  0
    8.1516   -3.4299    1.6376 H   0  0  0  0  0  0  0  0  0  0  0  0
    9.0494   -4.5189    0.5489 H   0  0  0  0  0  0  0  0  0  0  0  0
    6.2962   -3.3562   -0.0479 H   0  0  0  0  0  0  0  0  0  0  0  0
    7.8387   -2.8023   -0.6973 H   0  0  0  0  0  0  0  0  0  0  0  0
    6.8229   -5.6504   -1.0227 H   0  0  0  0  0  0  0  0  0  0  0  0
    6.4871   -4.3788   -2.2156 H   0  0  0  0  0  0  0  0  0  0  0  0
    8.8784   -4.2693   -2.5736 H   0  0  0  0  0  0  0  0  0  0  0  0
   11.0913   -7.0921   -1.4642 H   0  0  0  0  0  0  0  0  0  0  0  0
   11.6217   -8.3894    0.5961 H   0  0  0  0  0  0  0  0  0  0  0  0
    7.4879   -9.3951    0.9956 H   0  0  0  0  0  0  0  0  0  0  0  0
    6.9967   -8.1266   -1.0932 H   0  0  0  0  0  0  0  0  0  0  0  0
   10.8834   -9.8031    2.2795 H   0  0  0  0  0  0  0  0  0  0  0  0
    9.5494  -11.4574    5.9878 H   0  0  0  0  0  0  0  0  0  0  0  0
    7.0837  -10.9360    6.1632 H   0  0  0  0  0  0  0  0  0  0  0  0
    5.4858   -8.5095    2.2428 H   0  0  0  0  0  0  0  0  0  0  0  0
    3.9207  -11.0238    7.9361 H   0  0  0  0  0  0  0  0  0  0  0  0
    1.6988  -10.0664    7.2966 H   0  0  0  0  0  0  0  0  0  0  0  0
    1.5143   -8.8596    5.0892 H   0  0  0  0  0  0  0  0  0  0  0  0
  1  2  1  0
  2  3  1  0
  2  4  1  0
  4  5  1  0
  5  6  1  0
  6  7  1  0
  8  7  1  1
  8  9  2  0
  8 10  2  0
  8 11  1  0
 11 12  2  0
 12 13  1  0
 13 14  2  0
 14 15  1  0
 15 16  2  0
 14 17  1  0
 17 18  1  0
 18 19  2  0
 19 20  1  0
 20 21  2  0
 21 22  1  0
 22 23  2  0
 22 24  1  0
 24 25  2  0
 25 26  1  0
 26 27  2  0
 27 28  1  0
 28 29  1  0
 29 30  2  0
 30 31  1  0
 31 32  2  0
 16 11  1  0
 23 18  1  0
 28 24  1  0
 32 27  1  0
  1 33  1  6
  1 34  1  0
  1 35  1  0
  3 36  1  1
  3 37  1  0
  3 38  1  0
  4 39  1  1
  4 40  1  0
  5 41  1  1
  5 42  1  0
  6 43  1  1
  6 44  1  0
  7 45  1  0
 12 46  1  0
 13 47  1  0
 15 48  1  0
 16 49  1  0
 17 50  1  0
 20 51  1  0
 21 52  1  0
 25 53  1  0
 30 54  1  0
 31 55  1  0
 32 56  1  0
M  END
$$$$
