 energy: -91.993778123968 gnorm: 0.000037637123 xtb: 6.5.1 (9af7eec)
     RDKit          3D

 56 59  0  0  0  0  0  0  0  0999 V2000
    7.6866   -0.4386    0.8129 C   0  0  1  0  0  0  0  0  0  0  0  0
    6.5798    0.0453    0.0126 N   0  0  0  0  0  0  0  0  0  0  0  0
    6.5432   -0.6265   -1.2718 C   0  0  1  0  0  0  0  0  0  0  0  0
    5.3116   -0.0524    0.7278 C   0  0  1  0  0  0  0  0  0  0  0  0
    5.0866    1.1413    1.6598 C   0  0  1  0  0  0  0  0  0  0  0  0
    4.8531    2.4345    0.8734 C   0  0  1  0  0  0  0  0  0  0  0  0
    5.9814    2.8460    0.0736 N   0  0  0  0  0  0  0  0  0  0  0  0
    7.0085    3.9929    0.6893 S   0  0  1  0  0  6  0  0  0  0  0  0
    7.8620    4.3963   -0.3896 O   0  0  0  0  0  0  0  0  0  0  0  0
    6.2007    4.9763    1.3517 O   0  0  0  0  0  0  0  0  0  0  0  0
    8.0235    3.1628    1.9102 C   0  0  0  0  0  0  0  0  0  0  0  0
    9.2104    2.5810    1.5072 C   0  0  0  0  0  0  0  0  0  0  0  0
    9.9855    1.9056    2.4280 C   0  0  0  0  0  0  0  0  0  0  0  0
    9.5709    1.8014    3.7607 C   0  0  0  0  0  0  0  0  0  0  0  0
    8.3752    2.4060    4.1557 C   0  0  0  0  0  0  0  0  0  0  0  0
    7.6111    3.0877    3.2269 C   0  0  0  0  0  0  0  0  0  0  0  0
   10.3832    1.0982    4.6306 N   0  0  0  0  0  0  0  0  0  0  0  0
   10.2448    0.8117    5.9548 C   0  0  0  0  0  0  0  0  0  0  0  0
    9.1700    1.2094    6.6334 N   0  0  0  0  0  0  0  0  0  0  0  0
    9.1300    0.8822    7.9153 C   0  0  0  0  0  0  0  0  0  0  0  0
   10.1285    0.1647    8.5458 C   0  0  0  0  0  0  0  0  0  0  0  0
   11.2140   -0.2149    7.7454 C   0  0  0  0  0  0  0  0  0  0  0  0
   11.2641    0.1118    6.4553 N   0  0  0  0  0  0  0  0  0  0  0  0
   12.3383   -0.9733    8.2379 C   0  0  0  0  0  0  0  0  0  0  0  0
   13.4663   -1.4028    7.5400 C   0  0  0  0  0  0  0  0  0  0  0  0
   14.3052   -2.0852    8.3199 N   0  0  0  0  0  0  0  0  0  0  0  0
   13.7445   -2.1095    9.5200 C   0  0  0  0  0  0  0  0  0  0  0  0
   12.5228   -1.4302    9.5089 N   0  0  0  0  0  0  0  0  0  0  0  0
   11.7378   -1.2907   10.5619 N   0  0  0  0  0  0  0  0  0  0  0  0
   12.1450   -1.8271   11.6761 C   0  0  0  0  0  0  0  0  0  0  0  0
   13.3544   -2.5358   11.8185 C   0  0  0  0  0  0  0  0  0  0  0  0
   14.1673   -2.6798   10.7238 C   0  0  0  0  0  0  0  0  0  0  0  0
    7.6194   -1.5216    1.0033 H   0  0  0  0  0  0  0  0  0  0  0  0
    8.6207   -0.2343    0.2918 H   0  0  0  0  0  0  0  0  0  0  0  0
    7.7081    0.0797    1.7690 H   0  0  0  0  0  0  0  0  0  0  0  0
    5.7540   -0.1937   -1.8845 H   0  0  0  0  0  0  0  0  0  0  0  0
    7.4956   -0.4720   -1.7773 H   0  0  0  0  0  0  0  0  0  0  0  0
    6.3690   -1.7094   -1.1813 H   0  0  0  0  0  0  0  0  0  0  0  0
    4.5042   -0.0684   -0.0084 H   0  0  0  0  0  0  0  0  0  0  0  0
    5.2555   -0.9901    1.3060 H   0  0  0  0  0  0  0  0  0  0  0  0
    4.2059    0.9429    2.2732 H   0  0  0  0  0  0  0  0  0  0  0  0
    5.9413    1.2641    2.3258 H   0  0  0  0  0  0  0  0  0  0  0  0
    3.9938    2.3002    0.2058 H   0  0  0  0  0  0  0  0  0  0  0  0
    4.6352    3.2677    1.5448 H   0  0  0  0  0  0  0  0  0  0  0  0
    6.4673    2.0570   -0.3402 H   0  0  0  0  0  0  0  0  0  0  0  0
    9.5117    2.6824    0.4771 H   0  0  0  0  0  0  0  0  0  0  0  0
   10.9182    1.4525    2.1243 H   0  0  0  0  0  0  0  0  0  0  0  0
    8.0693    2.3336    5.1856 H   0  0  0  0  0  0  0  0  0  0  0  0
    6.6955    3.5803    3.5145 H   0  0  0  0  0  0  0  0  0  0  0  0
   11.2436    0.7316    4.2441 H   0  0  0  0  0  0  0  0  0  0  0  0
    8.2496    1.2171    8.4488 H   0  0  0  0  0  0  0  0  0  0  0  0
   10.0827   -0.0931    9.5884 H   0  0  0  0  0  0  0  0  0  0  0  0
   13.6788   -1.2307    6.5042 H   0  0  0  0  0  0  0  0  0  0  0  0
   11.4758   -1.6906   12.5122 H   0  0  0  0  0  0  0  0  0  0  0  0
   13.6218   -2.9510   12.7760 H   0  0  0  0  0  0  0  0  0  0  0  0
   15.1065   -3.2076   10.7528 H   0  0  0  0  0  0  0  0  0  0  0  0
  1  2  1  0
  2  3  1  0
  2  4  1  0
  4  5  1  0
  5  6  1  0
  6  7  1  0
  8  7  1  6
  8  9  2  0
  8 10  2  0
  8 11  1  0
 11 12  2  0
 12 13  1  0
 13 14  2  0
 14 15  1  0
 15 16  2  0
 14 17  1  0
 17 18  1  0
 18 19  2  0
 19 20  1  0
 20 21  2  0
 21 22  1  0
 22 23  2  0
 22 24  1  0
 24 25  2  0
 25 26  1  0
 26 27  2  0
 27 28  1  0
 28 29  1  0
 29 30  2  0
 30 31  1  0
 31 32  2  0
 16 11  1  0
 23 18  1  0
 28 24  1  0
 32 27  1  0
  1 33  1  1
  1 34  1  0
  1 35  1  0
  3 36  1  6
  3 37  1  0
  3 38  1  0
  4 39  1  6
  4 40  1  0
  5 41  1  1
  5 42  1  0
  6 43  1  6
  6 44  1  0
  7 45  1  0
 12 46  1  0
 13 47  1  0
 15 48  1  0
 16 49  1  0
 17 50  1  0
 20 51  1  0
 21 52  1  0
 25 53  1  0
 30 54  1  0
 31 55  1  0
 32 56  1  0
M  END
$$$$
