 energy: -37.040170509160 gnorm: 0.000047126890 xtb: 6.5.1 (9af7eec)
     RDKit          3D

 23 22  0  0  0  0  0  0  0  0999 V2000
    0.9161   -0.2148   -0.6573 N   0  0  0  0  0  0  0  0  0  0  0  0
    0.0456    0.8027   -0.1005 C   0  0  2  0  0  0  0  0  0  0  0  0
   -1.0684    0.1340    0.7342 C   0  0  0  0  0  0  0  0  0  0  0  0
   -2.2160    0.0424    0.3303 O   0  0  0  0  0  0  0  0  0  0  0  0
   -0.5648    1.6019   -1.2612 C   0  0  1  0  0  0  0  0  0  0  0  0
   -1.2467    0.7598   -2.1474 O   0  0  0  0  0  0  0  0  0  0  0  0
    0.7031   -0.4848   -1.6073 H   0  0  0  0  0  0  0  0  0  0  0  0
    0.6397    1.4529    0.5520 H   0  0  0  0  0  0  0  0  0  0  0  0
   -1.2300    2.3726   -0.8501 H   0  0  0  0  0  0  0  0  0  0  0  0
    0.2281    2.0886   -1.8357 H   0  0  0  0  0  0  0  0  0  0  0  0
   -1.9678    0.3575   -1.6323 H   0  0  0  0  0  0  0  0  0  0  0  0
   -0.6335   -0.3260    1.9104 N   0  0  0  0  0  0  0  0  0  0  0  0
    0.3670   -0.3028    2.0930 H   0  0  0  0  0  0  0  0  0  0  0  0
   -1.4813   -1.0491    2.8267 C   0  0  1  0  0  0  0  0  0  0  0  0
   -1.1557   -2.0869    2.9173 H   0  0  0  0  0  0  0  0  0  0  0  0
   -1.4533   -0.5805    3.8111 H   0  0  0  0  0  0  0  0  0  0  0  0
   -2.4985   -1.0215    2.4389 H   0  0  0  0  0  0  0  0  0  0  0  0
    1.8959   -0.8160    0.0428 C   0  0  0  0  0  0  0  0  0  0  0  0
    2.0971   -0.5684    1.2204 O   0  0  0  0  0  0  0  0  0  0  0  0
    2.7107   -1.8055   -0.7548 C   0  0  2  0  0  0  0  0  0  0  0  0
    2.0716   -2.6109   -1.1103 H   0  0  0  0  0  0  0  0  0  0  0  0
    3.4921   -2.2188   -0.1240 H   0  0  0  0  0  0  0  0  0  0  0  0
    3.1617   -1.3139   -1.6137 H   0  0  0  0  0  0  0  0  0  0  0  0
  1  2  1  0
  1 18  1  0
  1  7  1  0
  2  8  1  1
  2  3  1  0
  2  5  1  0
  3 12  1  0
  3  4  1  0
  5  6  1  0
  5  9  1  1
  5 10  1  0
  6 11  1  0
 12 13  1  0
 12 14  1  0
 14 17  1  6
 14 15  1  0
 14 16  1  0
 18 19  1  0
 18 20  1  0
 20 23  1  6
 20 21  1  0
 20 22  1  0
M  END
$$$$
