 energy: -37.035817634212 gnorm: 0.000019987064 xtb: 6.5.1 (9af7eec)
     RDKit          3D

 23 22  0  0  0  0  0  0  0  0999 V2000
    1.1874    0.0011   -0.5950 N   0  0  0  0  0  0  0  0  0  0  0  0
    0.1688    0.8237    0.0308 C   0  0  2  0  0  0  0  0  0  0  0  0
   -1.1605    0.0558    0.2123 C   0  0  0  0  0  0  0  0  0  0  0  0
   -2.1945    0.4149   -0.3252 O   0  0  0  0  0  0  0  0  0  0  0  0
   -0.0632    2.0863   -0.8187 C   0  0  1  0  0  0  0  0  0  0  0  0
   -1.0387    2.9219   -0.2772 O   0  0  0  0  0  0  0  0  0  0  0  0
    1.3378    0.1415   -1.5818 H   0  0  0  0  0  0  0  0  0  0  0  0
    0.5226    1.1048    1.0312 H   0  0  0  0  0  0  0  0  0  0  0  0
    0.8599    2.6710   -0.8681 H   0  0  0  0  0  0  0  0  0  0  0  0
   -0.3411    1.7715   -1.8373 H   0  0  0  0  0  0  0  0  0  0  0  0
   -1.8664    2.4138   -0.2697 H   0  0  0  0  0  0  0  0  0  0  0  0
   -1.0512   -0.9995    1.0230 N   0  0  0  0  0  0  0  0  0  0  0  0
   -0.1429   -1.2087    1.4298 H   0  0  0  0  0  0  0  0  0  0  0  0
   -2.1645   -1.8594    1.3412 C   0  0  1  0  0  0  0  0  0  0  0  0
   -2.3488   -1.8581    2.4164 H   0  0  0  0  0  0  0  0  0  0  0  0
   -3.0434   -1.4800    0.8223 H   0  0  0  0  0  0  0  0  0  0  0  0
   -1.9627   -2.8815    1.0161 H   0  0  0  0  0  0  0  0  0  0  0  0
    1.9456   -0.8940    0.0729 C   0  0  0  0  0  0  0  0  0  0  0  0
    1.7600   -1.1556    1.2480 O   0  0  0  0  0  0  0  0  0  0  0  0
    3.0235   -1.5382   -0.7652 C   0  0  2  0  0  0  0  0  0  0  0  0
    3.7034   -0.7804   -1.1482 H   0  0  0  0  0  0  0  0  0  0  0  0
    2.5783   -2.0659   -1.6059 H   0  0  0  0  0  0  0  0  0  0  0  0
    3.5794   -2.2425   -0.1534 H   0  0  0  0  0  0  0  0  0  0  0  0
  1  2  1  0
  1 18  1  0
  1  7  1  0
  2  8  1  1
  2  3  1  0
  2  5  1  0
  3 12  1  0
  3  4  1  0
  5  6  1  0
  5  9  1  6
  5 10  1  0
  6 11  1  0
 12 13  1  0
 12 14  1  0
 14 17  1  6
 14 15  1  0
 14 16  1  0
 18 19  1  0
 18 20  1  0
 20 23  1  1
 20 21  1  0
 20 22  1  0
M  END
$$$$
