 energy: -37.034783576493 gnorm: 0.000044894578 xtb: 6.5.1 (9af7eec)
     RDKit          3D

 23 22  0  0  0  0  0  0  0  0999 V2000
    1.2371    0.2804    0.6051 N   0  0  0  0  0  0  0  0  0  0  0  0
    0.1349    1.1413    0.9456 C   0  0  2  0  0  0  0  0  0  0  0  0
    0.7058    2.5374    1.2249 C   0  0  0  0  0  0  0  0  0  0  0  0
    1.8851    2.7824    1.0530 O   0  0  0  0  0  0  0  0  0  0  0  0
   -0.6563    0.6016    2.1593 C   0  0  1  0  0  0  0  0  0  0  0  0
   -1.9172    1.2207    2.2758 O   0  0  0  0  0  0  0  0  0  0  0  0
    2.1455    0.7247    0.6767 H   0  0  0  0  0  0  0  0  0  0  0  0
   -0.5595    1.1969    0.0925 H   0  0  0  0  0  0  0  0  0  0  0  0
   -0.7579   -0.4826    2.0498 H   0  0  0  0  0  0  0  0  0  0  0  0
   -0.1190    0.8159    3.0863 H   0  0  0  0  0  0  0  0  0  0  0  0
   -2.4956    0.8622    1.5925 H   0  0  0  0  0  0  0  0  0  0  0  0
   -0.2068    3.4209    1.6508 N   0  0  0  0  0  0  0  0  0  0  0  0
   -1.1289    3.0784    1.8904 H   0  0  0  0  0  0  0  0  0  0  0  0
    0.1376    4.7696    2.0305 C   0  0  1  0  0  0  0  0  0  0  0  0
    1.1776    4.9378    1.7559 H   0  0  0  0  0  0  0  0  0  0  0  0
   -0.4983    5.4821    1.5036 H   0  0  0  0  0  0  0  0  0  0  0  0
    0.0210    4.9139    3.1063 H   0  0  0  0  0  0  0  0  0  0  0  0
    1.0629   -0.9000   -0.0304 C   0  0  0  0  0  0  0  0  0  0  0  0
   -0.0404   -1.3598   -0.2455 O   0  0  0  0  0  0  0  0  0  0  0  0
    2.3561   -1.5829   -0.4133 C   0  0  2  0  0  0  0  0  0  0  0  0
    2.8934   -0.9738   -1.1367 H   0  0  0  0  0  0  0  0  0  0  0  0
    2.1362   -2.5514   -0.8523 H   0  0  0  0  0  0  0  0  0  0  0  0
    2.9833   -1.7145    0.4649 H   0  0  0  0  0  0  0  0  0  0  0  0
  1  2  1  0
  1 18  1  0
  1  7  1  0
  2  8  1  6
  2  3  1  0
  2  5  1  0
  3 12  1  0
  3  4  1  0
  5  6  1  0
  5  9  1  6
  5 10  1  0
  6 11  1  0
 12 13  1  0
 12 14  1  0
 14 17  1  1
 14 15  1  0
 14 16  1  0
 18 19  1  0
 18 20  1  0
 20 23  1  1
 20 21  1  0
 20 22  1  0
M  END
$$$$
