 energy: -37.036624078156 gnorm: 0.000033464622 xtb: 6.5.1 (9af7eec)
     RDKit          3D

 23 22  0  0  0  0  0  0  0  0999 V2000
    1.7266    0.6168    0.3134 N   0  0  0  0  0  0  0  0  0  0  0  0
    0.4671    1.3247    0.3302 C   0  0  2  0  0  0  0  0  0  0  0  0
    0.4366    2.1950   -0.9277 C   0  0  0  0  0  0  0  0  0  0  0  0
    1.4207    2.3364   -1.6271 O   0  0  0  0  0  0  0  0  0  0  0  0
    0.2915    2.1674    1.6214 C   0  0  1  0  0  0  0  0  0  0  0  0
   -0.3671    1.4555    2.6205 O   0  0  0  0  0  0  0  0  0  0  0  0
    2.3286    0.8835   -0.4585 H   0  0  0  0  0  0  0  0  0  0  0  0
   -0.3639    0.6049    0.2966 H   0  0  0  0  0  0  0  0  0  0  0  0
    1.2859    2.5039    1.9506 H   0  0  0  0  0  0  0  0  0  0  0  0
   -0.3193    3.0525    1.4202 H   0  0  0  0  0  0  0  0  0  0  0  0
    0.1353    0.6265    2.7611 H   0  0  0  0  0  0  0  0  0  0  0  0
   -0.7536    2.7637   -1.1757 N   0  0  0  0  0  0  0  0  0  0  0  0
   -1.5238    2.5902   -0.5490 H   0  0  0  0  0  0  0  0  0  0  0  0
   -0.9805    3.6476   -2.2940 C   0  0  1  0  0  0  0  0  0  0  0  0
   -0.0485    3.7167   -2.8519 H   0  0  0  0  0  0  0  0  0  0  0  0
   -1.7632    3.2516   -2.9427 H   0  0  0  0  0  0  0  0  0  0  0  0
   -1.2700    4.6410   -1.9475 H   0  0  0  0  0  0  0  0  0  0  0  0
    2.1158   -0.2812    1.2362 C   0  0  0  0  0  0  0  0  0  0  0  0
    1.4364   -0.5681    2.2073 O   0  0  0  0  0  0  0  0  0  0  0  0
    3.4650   -0.8999    0.9556 C   0  0  2  0  0  0  0  0  0  0  0  0
    4.2315   -0.1282    0.9439 H   0  0  0  0  0  0  0  0  0  0  0  0
    3.4551   -1.3949   -0.0126 H   0  0  0  0  0  0  0  0  0  0  0  0
    3.6958   -1.6247    1.7306 H   0  0  0  0  0  0  0  0  0  0  0  0
  1  2  1  0
  1 18  1  0
  1  7  1  0
  2  8  1  6
  2  3  1  0
  2  5  1  0
  3 12  1  0
  3  4  1  0
  5  6  1  0
  5  9  1  1
  5 10  1  0
  6 11  1  0
 12 13  1  0
 12 14  1  0
 14 17  1  1
 14 15  1  0
 14 16  1  0
 18 19  1  0
 18 20  1  0
 20 23  1  1
 20 21  1  0
 20 22  1  0
M  END
$$$$
