 energy: -37.035174144060 gnorm: 0.000048124834 xtb: 6.5.1 (9af7eec)
     RDKit          3D

 23 22  0  0  0  0  0  0  0  0999 V2000
    1.0682   -0.5649   -1.7763 N   0  0  0  0  0  0  0  0  0  0  0  0
   -0.2716   -0.2024   -1.3714 C   0  0  2  0  0  0  0  0  0  0  0  0
   -1.0379    0.1480   -2.6418 C   0  0  0  0  0  0  0  0  0  0  0  0
   -0.4529    0.3674   -3.6874 O   0  0  0  0  0  0  0  0  0  0  0  0
   -0.2587    0.9855   -0.3687 C   0  0  1  0  0  0  0  0  0  0  0  0
   -0.3134    0.5430    0.9516 O   0  0  0  0  0  0  0  0  0  0  0  0
    1.2596   -0.4014   -2.7583 H   0  0  0  0  0  0  0  0  0  0  0  0
   -0.7393   -1.0593   -0.8690 H   0  0  0  0  0  0  0  0  0  0  0  0
    0.6456    1.5813   -0.5595 H   0  0  0  0  0  0  0  0  0  0  0  0
   -1.1264    1.6330   -0.5203 H   0  0  0  0  0  0  0  0  0  0  0  0
    0.4418   -0.0661    1.0773 H   0  0  0  0  0  0  0  0  0  0  0  0
   -2.3757    0.2299   -2.5496 N   0  0  0  0  0  0  0  0  0  0  0  0
   -2.8401    0.4359   -3.4242 H   0  0  0  0  0  0  0  0  0  0  0  0
   -3.2278   -0.1530   -1.4478 C   0  0  1  0  0  0  0  0  0  0  0  0
   -3.5062   -1.2092   -1.5156 H   0  0  0  0  0  0  0  0  0  0  0  0
   -2.7359    0.0197   -0.4948 H   0  0  0  0  0  0  0  0  0  0  0  0
   -4.1359    0.4469   -1.4813 H   0  0  0  0  0  0  0  0  0  0  0  0
    2.0208   -0.9763   -0.9199 C   0  0  0  0  0  0  0  0  0  0  0  0
    1.8253   -1.0775    0.2796 O   0  0  0  0  0  0  0  0  0  0  0  0
    3.3392   -1.3058   -1.5790 C   0  0  2  0  0  0  0  0  0  0  0  0
    3.1943   -2.0511   -2.3573 H   0  0  0  0  0  0  0  0  0  0  0  0
    4.0286   -1.6887   -0.8323 H   0  0  0  0  0  0  0  0  0  0  0  0
    3.7598   -0.4095   -2.0297 H   0  0  0  0  0  0  0  0  0  0  0  0
  1  2  1  0
  1 18  1  0
  1  7  1  0
  2  8  1  1
  2  3  1  0
  2  5  1  0
  3 12  1  0
  3  4  1  0
  5  6  1  0
  5  9  1  1
  5 10  1  0
  6 11  1  0
 12 13  1  0
 12 14  1  0
 14 17  1  1
 14 15  1  0
 14 16  1  0
 18 19  1  0
 18 20  1  0
 20 23  1  6
 20 21  1  0
 20 22  1  0
M  END
$$$$
