 energy: -37.030563672732 gnorm: 0.000042699803 xtb: 6.5.1 (9af7eec)
     RDKit          3D

 23 22  0  0  0  0  0  0  0  0999 V2000
    0.7554   -0.1738   -0.8036 N   0  0  0  0  0  0  0  0  0  0  0  0
    0.1388   -0.2845    0.4978 C   0  0  2  0  0  0  0  0  0  0  0  0
   -1.2012   -1.0050    0.2972 C   0  0  0  0  0  0  0  0  0  0  0  0
   -1.5987   -1.2915   -0.8153 O   0  0  0  0  0  0  0  0  0  0  0  0
   -0.0702    1.1145    1.1198 C   0  0  1  0  0  0  0  0  0  0  0  0
   -1.1114    1.8288    0.5084 O   0  0  0  0  0  0  0  0  0  0  0  0
    0.1599   -0.4805   -1.5657 H   0  0  0  0  0  0  0  0  0  0  0  0
    0.7955   -0.8613    1.1627 H   0  0  0  0  0  0  0  0  0  0  0  0
   -0.3457    1.0293    2.1735 H   0  0  0  0  0  0  0  0  0  0  0  0
    0.8820    1.6566    1.0535 H   0  0  0  0  0  0  0  0  0  0  0  0
   -0.9200    1.9051   -0.4337 H   0  0  0  0  0  0  0  0  0  0  0  0
   -1.8607   -1.2876    1.4294 N   0  0  0  0  0  0  0  0  0  0  0  0
   -1.4864   -0.9778    2.3115 H   0  0  0  0  0  0  0  0  0  0  0  0
   -3.1705   -1.8940    1.4359 C   0  0  1  0  0  0  0  0  0  0  0  0
   -3.1664   -2.7996    2.0438 H   0  0  0  0  0  0  0  0  0  0  0  0
   -3.9158   -1.1996    1.8274 H   0  0  0  0  0  0  0  0  0  0  0  0
   -3.4204   -2.1473    0.4074 H   0  0  0  0  0  0  0  0  0  0  0  0
    2.0941   -0.0403   -0.9587 C   0  0  0  0  0  0  0  0  0  0  0  0
    2.8391    0.1419   -0.0192 O   0  0  0  0  0  0  0  0  0  0  0  0
    2.5462   -0.1093   -2.4008 C   0  0  2  0  0  0  0  0  0  0  0  0
    1.9941    0.6061   -3.0054 H   0  0  0  0  0  0  0  0  0  0  0  0
    2.3667   -1.1080   -2.7929 H   0  0  0  0  0  0  0  0  0  0  0  0
    3.6082    0.1105   -2.4556 H   0  0  0  0  0  0  0  0  0  0  0  0
  1  2  1  0
  1 18  1  0
  1  7  1  0
  2  8  1  1
  2  3  1  0
  2  5  1  0
  3 12  1  0
  3  4  1  0
  5  6  1  0
  5  9  1  1
  5 10  1  0
  6 11  1  0
 12 13  1  0
 12 14  1  0
 14 17  1  6
 14 15  1  0
 14 16  1  0
 18 19  1  0
 18 20  1  0
 20 23  1  1
 20 21  1  0
 20 22  1  0
M  END
$$$$
