-32.96602651
     RDKit          3D

 22 21  0  0  1  0  0  0  0  0999 V2000
   -0.9161    0.6402   -0.2997 N   0  0  0  0  0  0  0  0  0  0  0  0
   -0.9935    1.6456   -0.2342 H   0  0  0  0  0  0  0  0  0  0  0  0
    0.1458    0.1078   -1.1177 C   0  0  1  0  0  0  0  0  0  0  0  0
   -0.2549   -0.6880   -1.7599 H   0  0  0  0  0  0  0  0  0  0  0  0
    0.7268    1.1984   -2.0163 C   0  0  1  0  0  0  0  0  0  0  0  0
    1.2854   -0.5578   -0.3253 C   0  0  0  0  0  0  0  0  0  0  0  0
   -0.0561    1.6194   -2.6432 H   0  0  0  0  0  0  0  0  0  0  0  0
    1.1747    1.9974   -1.4295 H   0  0  0  0  0  0  0  0  0  0  0  0
    1.4938    0.7702   -2.6561 H   0  0  0  0  0  0  0  0  0  0  0  0
    1.8058   -1.5729   -0.7462 O   0  0  0  0  0  0  0  0  0  0  0  0
   -1.7888   -0.0511    0.4754 C   0  0  0  0  0  0  0  0  0  0  0  0
   -1.7180   -1.5543    0.3733 C   0  0  2  0  0  0  0  0  0  0  0  0
   -0.7088   -1.9128    0.5598 H   0  0  0  0  0  0  0  0  0  0  0  0
   -2.0129   -1.8678   -0.6264 H   0  0  0  0  0  0  0  0  0  0  0  0
   -2.4010   -1.9889    1.0974 H   0  0  0  0  0  0  0  0  0  0  0  0
   -2.5724    0.5400    1.1904 O   0  0  0  0  0  0  0  0  0  0  0  0
    1.7220    0.0108    0.8158 N   0  0  0  0  0  0  0  0  0  0  0  0
    2.4539   -0.5221    1.2659 H   0  0  0  0  0  0  0  0  0  0  0  0
    1.2522    1.1785    1.5241 C   0  0  1  0  0  0  0  0  0  0  0  0
    1.1278    2.0230    0.8472 H   0  0  0  0  0  0  0  0  0  0  0  0
    0.3031    0.9913    2.0330 H   0  0  0  0  0  0  0  0  0  0  0  0
    1.9960    1.4503    2.2703 H   0  0  0  0  0  0  0  0  0  0  0  0
  1  2  1  0
  1 11  1  0
  3  4  1  6
  3  6  1  0
  3  1  1  0
  5  8  1  1
  5  3  1  0
  6 17  1  0
  7  5  1  0
  9  5  1  0
 10  6  2  0
 11 16  2  0
 12 11  1  0
 12 13  1  1
 12 15  1  0
 14 12  1  0
 17 18  1  0
 17 19  1  0
 19 21  1  1
 19 22  1  0
 20 19  1  0
M  END
$$$$
