-32.95910553
     RDKit          3D

 22 21  0  0  1  0  0  0  0  0999 V2000
   -1.0110   -0.5934    0.5735 N   0  0  0  0  0  0  0  0  0  0  0  0
   -1.1199   -0.9382    1.5178 H   0  0  0  0  0  0  0  0  0  0  0  0
    0.3076   -0.7889    0.0036 C   0  0  1  0  0  0  0  0  0  0  0  0
    0.7750   -1.5647    0.6169 H   0  0  0  0  0  0  0  0  0  0  0  0
    0.2769   -1.2805   -1.4498 C   0  0  1  0  0  0  0  0  0  0  0  0
    1.1636    0.4861    0.0827 C   0  0  0  0  0  0  0  0  0  0  0  0
    1.2394   -1.7110   -1.7159 H   0  0  0  0  0  0  0  0  0  0  0  0
   -0.4882   -2.0450   -1.5601 H   0  0  0  0  0  0  0  0  0  0  0  0
    0.0685   -0.4660   -2.1355 H   0  0  0  0  0  0  0  0  0  0  0  0
    0.7059    1.5990   -0.0678 O   0  0  0  0  0  0  0  0  0  0  0  0
   -2.0966    0.1414    0.1964 C   0  0  0  0  0  0  0  0  0  0  0  0
   -2.0898    0.8145   -1.1491 C   0  0  2  0  0  0  0  0  0  0  0  0
   -1.1818    1.3970   -1.2693 H   0  0  0  0  0  0  0  0  0  0  0  0
   -2.9533    1.4720   -1.2012 H   0  0  0  0  0  0  0  0  0  0  0  0
   -2.1669    0.0732   -1.9407 H   0  0  0  0  0  0  0  0  0  0  0  0
   -3.0458    0.1912    0.9521 O   0  0  0  0  0  0  0  0  0  0  0  0
    2.4866    0.3127    0.2982 N   0  0  0  0  0  0  0  0  0  0  0  0
    3.0051    1.1781    0.3559 H   0  0  0  0  0  0  0  0  0  0  0  0
    3.2114   -0.9042    0.5744 C   0  0  1  0  0  0  0  0  0  0  0  0
    4.2757   -0.6816    0.5786 H   0  0  0  0  0  0  0  0  0  0  0  0
    2.9447   -1.3199    1.5508 H   0  0  0  0  0  0  0  0  0  0  0  0
    3.0252   -1.6576   -0.1921 H   0  0  0  0  0  0  0  0  0  0  0  0
  1  2  1  0
  3  6  1  0
  3  1  1  0
  3  4  1  1
  5  3  1  0
  6 17  1  0
  5  7  1  6
  8  5  1  0
  9  5  1  0
 10  6  2  0
 11  1  1  0
 11 16  2  0
 12 11  1  0
 12 13  1  6
 14 12  1  0
 15 12  1  0
 17 18  1  0
 17 19  1  0
 19 20  1  1
 19 21  1  0
 22 19  1  0
M  END
$$$$
