 energy: -69.015140336450 gnorm: 0.000028113812 xtb: 6.5.1 (9af7eec)
     RDKit          3D

 43 42  0  0  0  0  0  0  0  0999 V2000
    4.4422   -0.6385   -2.9227 H   0  0  0  0  0  0  0  0  0  0  0  0
    4.6757   -0.6042   -1.8628 C   0  0  1  0  0  0  0  0  0  0  0  0
    5.6122   -0.0647   -1.7152 H   0  0  0  0  0  0  0  0  0  0  0  0
    4.7921   -1.6148   -1.4798 H   0  0  0  0  0  0  0  0  0  0  0  0
    3.5848    0.1205   -1.1254 C   0  0  0  0  0  0  0  0  0  0  0  0
    2.6821    0.7391   -1.6683 O   0  0  0  0  0  0  0  0  0  0  0  0
    3.6741    0.0248    0.2192 N   0  0  0  0  0  0  0  0  0  0  0  0
    4.5153   -0.3471    0.6317 H   0  0  0  0  0  0  0  0  0  0  0  0
    2.7247    0.6657    1.1154 C   0  0  1  0  0  0  0  0  0  0  0  0
    1.7271    0.5376    0.6799 H   0  0  0  0  0  0  0  0  0  0  0  0
    2.8042    0.0416    2.4982 C   0  0  2  0  0  0  0  0  0  0  0  0
    3.7631    0.2797    2.9532 H   0  0  0  0  0  0  0  0  0  0  0  0
    2.6874   -1.0371    2.4349 H   0  0  0  0  0  0  0  0  0  0  0  0
    2.0192    0.4465    3.1307 H   0  0  0  0  0  0  0  0  0  0  0  0
    3.0731    2.1636    1.1609 C   0  0  0  0  0  0  0  0  0  0  0  0
    3.8046    2.6288    2.0199 O   0  0  0  0  0  0  0  0  0  0  0  0
    2.5343    2.8562    0.1432 N   0  0  0  0  0  0  0  0  0  0  0  0
    2.1855    2.2924   -0.6325 H   0  0  0  0  0  0  0  0  0  0  0  0
    2.7907    4.2569   -0.1556 C   0  0  1  0  0  0  0  0  0  0  0  0
    2.0768    4.5502   -0.9351 H   0  0  0  0  0  0  0  0  0  0  0  0
    2.5795    5.1669    1.0701 C   0  0  1  0  0  0  0  0  0  0  0  0
    1.5426    5.0449    1.4188 H   0  0  0  0  0  0  0  0  0  0  0  0
    3.2525    4.8844    1.8806 H   0  0  0  0  0  0  0  0  0  0  0  0
    2.8652    6.5072    0.7819 O   0  0  0  0  0  0  0  0  0  0  0  0
    2.3691    6.7824    0.0018 H   0  0  0  0  0  0  0  0  0  0  0  0
    4.1918    4.4510   -0.7604 C   0  0  0  0  0  0  0  0  0  0  0  0
    4.3412    4.9452   -1.8667 O   0  0  0  0  0  0  0  0  0  0  0  0
    5.1909    4.0079    0.0063 N   0  0  0  0  0  0  0  0  0  0  0  0
    4.9835    3.6012    0.9136 H   0  0  0  0  0  0  0  0  0  0  0  0
    6.5639    3.9290   -0.4656 C   0  0  1  0  0  0  0  0  0  0  0  0
    6.8017    4.8630   -0.9881 H   0  0  0  0  0  0  0  0  0  0  0  0
    7.4977    3.7030    0.7097 C   0  0  1  0  0  0  0  0  0  0  0  0
    7.3572    4.4783    1.4582 H   0  0  0  0  0  0  0  0  0  0  0  0
    7.2973    2.7304    1.1531 H   0  0  0  0  0  0  0  0  0  0  0  0
    8.5297    3.7177    0.3702 H   0  0  0  0  0  0  0  0  0  0  0  0
    6.6265    2.7582   -1.4702 C   0  0  0  0  0  0  0  0  0  0  0  0
    6.9504    1.6297   -1.1445 O   0  0  0  0  0  0  0  0  0  0  0  0
    6.2670    3.1148   -2.7114 N   0  0  0  0  0  0  0  0  0  0  0  0
    5.8001    4.0090   -2.8272 H   0  0  0  0  0  0  0  0  0  0  0  0
    6.1370    2.1637   -3.7900 C   0  0  1  0  0  0  0  0  0  0  0  0
    6.7493    1.2942   -3.5566 H   0  0  0  0  0  0  0  0  0  0  0  0
    5.0977    1.8507   -3.9146 H   0  0  0  0  0  0  0  0  0  0  0  0
    6.4870    2.6182   -4.7160 H   0  0  0  0  0  0  0  0  0  0  0  0
  2  1  1  6
  2  4  1  0
  2  3  1  0
  2  5  1  0
  5  6  1  0
  5  7  1  0
  7  8  1  0
  7  9  1  0
  9 15  1  0
  9 10  1  6
  9 11  1  0
 11 12  1  1
 11 14  1  0
 11 13  1  0
 15 17  1  0
 15 16  2  0
 17 18  1  0
 17 19  1  0
 19 20  1  6
 19 26  1  0
 19 21  1  0
 21 24  1  0
 21 23  1  1
 21 22  1  0
 24 25  1  0
 26 28  1  0
 26 27  1  0
 28 29  1  0
 28 30  1  0
 30 32  1  0
 30 31  1  6
 30 36  1  0
 32 35  1  6
 32 34  1  0
 32 33  1  0
 36 37  1  0
 36 38  1  0
 38 39  1  0
 38 40  1  0
 40 43  1  6
 40 42  1  0
 40 41  1  0
M  END
$$$$
