 energy: -69.012700810818 gnorm: 0.000031772434 xtb: 6.5.1 (9af7eec)
     RDKit          3D

 43 42  0  0  0  0  0  0  0  0999 V2000
    5.1467   -1.8856   -1.0816 H   0  0  0  0  0  0  0  0  0  0  0  0
    4.0807   -1.8420   -1.2872 C   0  0  1  0  0  0  0  0  0  0  0  0
    3.9111   -2.1228   -2.3223 H   0  0  0  0  0  0  0  0  0  0  0  0
    3.7429   -0.8176   -1.1395 H   0  0  0  0  0  0  0  0  0  0  0  0
    3.3044   -2.7583   -0.3803 C   0  0  0  0  0  0  0  0  0  0  0  0
    2.4950   -3.5749   -0.7707 O   0  0  0  0  0  0  0  0  0  0  0  0
    3.5274   -2.6111    0.9545 N   0  0  0  0  0  0  0  0  0  0  0  0
    2.9810   -3.2234    1.5460 H   0  0  0  0  0  0  0  0  0  0  0  0
    4.6066   -1.8783    1.5792 C   0  0  1  0  0  0  0  0  0  0  0  0
    4.6773   -0.8780    1.1381 H   0  0  0  0  0  0  0  0  0  0  0  0
    4.3626   -1.7536    3.0801 C   0  0  2  0  0  0  0  0  0  0  0  0
    4.3154   -2.7345    3.5489 H   0  0  0  0  0  0  0  0  0  0  0  0
    3.4257   -1.2322    3.2608 H   0  0  0  0  0  0  0  0  0  0  0  0
    5.1696   -1.1890    3.5394 H   0  0  0  0  0  0  0  0  0  0  0  0
    5.9430   -2.5873    1.3118 C   0  0  0  0  0  0  0  0  0  0  0  0
    6.9298   -2.0103    0.8883 O   0  0  0  0  0  0  0  0  0  0  0  0
    5.9255   -3.9024    1.5714 N   0  0  0  0  0  0  0  0  0  0  0  0
    5.0710   -4.3833    1.8222 H   0  0  0  0  0  0  0  0  0  0  0  0
    7.0493   -4.7820    1.3185 C   0  0  1  0  0  0  0  0  0  0  0  0
    7.9754   -4.2625    1.5849 H   0  0  0  0  0  0  0  0  0  0  0  0
    6.8546   -6.0470    2.1692 C   0  0  1  0  0  0  0  0  0  0  0  0
    7.6529   -6.7625    1.9363 H   0  0  0  0  0  0  0  0  0  0  0  0
    6.9067   -5.7899    3.2304 H   0  0  0  0  0  0  0  0  0  0  0  0
    5.5875   -6.6015    1.9525 O   0  0  0  0  0  0  0  0  0  0  0  0
    5.5666   -6.8888    1.0245 H   0  0  0  0  0  0  0  0  0  0  0  0
    7.0519   -5.1318   -0.1835 C   0  0  0  0  0  0  0  0  0  0  0  0
    6.6293   -6.2106   -0.5817 O   0  0  0  0  0  0  0  0  0  0  0  0
    7.5003   -4.1386   -0.9520 N   0  0  0  0  0  0  0  0  0  0  0  0
    7.6967   -3.2570   -0.4875 H   0  0  0  0  0  0  0  0  0  0  0  0
    7.5921   -4.1411   -2.4090 C   0  0  1  0  0  0  0  0  0  0  0  0
    8.1342   -3.2311   -2.6823 H   0  0  0  0  0  0  0  0  0  0  0  0
    8.3588   -5.3561   -2.9290 C   0  0  1  0  0  0  0  0  0  0  0  0
    9.3684   -5.3593   -2.5232 H   0  0  0  0  0  0  0  0  0  0  0  0
    7.8667   -6.2806   -2.6424 H   0  0  0  0  0  0  0  0  0  0  0  0
    8.4156   -5.3071   -4.0129 H   0  0  0  0  0  0  0  0  0  0  0  0
    6.2084   -4.0278   -3.0904 C   0  0  0  0  0  0  0  0  0  0  0  0
    5.9549   -3.0903   -3.8213 O   0  0  0  0  0  0  0  0  0  0  0  0
    5.3679   -5.0329   -2.8250 N   0  0  0  0  0  0  0  0  0  0  0  0
    5.6421   -5.7516   -2.1664 H   0  0  0  0  0  0  0  0  0  0  0  0
    4.0280   -5.0873   -3.3637 C   0  0  1  0  0  0  0  0  0  0  0  0
    3.2890   -4.8464   -2.5961 H   0  0  0  0  0  0  0  0  0  0  0  0
    3.9591   -4.3570   -4.1682 H   0  0  0  0  0  0  0  0  0  0  0  0
    3.8299   -6.0839   -3.7570 H   0  0  0  0  0  0  0  0  0  0  0  0
  2  1  1  1
  2  4  1  0
  2  3  1  0
  2  5  1  0
  5  6  1  0
  5  7  1  0
  7  8  1  0
  7  9  1  0
  9 15  1  0
  9 10  1  6
  9 11  1  0
 11 12  1  1
 11 14  1  0
 11 13  1  0
 15 17  1  0
 15 16  2  0
 17 18  1  0
 17 19  1  0
 19 20  1  1
 19 26  1  0
 19 21  1  0
 21 24  1  0
 21 23  1  1
 21 22  1  0
 24 25  1  0
 26 28  1  0
 26 27  1  0
 28 29  1  0
 28 30  1  0
 30 32  1  0
 30 31  1  1
 30 36  1  0
 32 35  1  6
 32 34  1  0
 32 33  1  0
 36 37  1  0
 36 38  1  0
 38 39  1  0
 38 40  1  0
 40 43  1  6
 40 42  1  0
 40 41  1  0
M  END
$$$$
