 energy: -69.013621273178 gnorm: 0.000014566373 xtb: 6.5.1 (9af7eec)
     RDKit          3D

 43 42  0  0  0  0  0  0  0  0999 V2000
    0.7357    2.4460   -0.4540 H   0  0  0  0  0  0  0  0  0  0  0  0
    0.8981    1.9886    0.5228 C   0  0  1  0  0  0  0  0  0  0  0  0
    0.0762    2.2805    1.1709 H   0  0  0  0  0  0  0  0  0  0  0  0
    1.8414    2.3360    0.9333 H   0  0  0  0  0  0  0  0  0  0  0  0
    0.8768    0.5016    0.3140 C   0  0  1  0  0  0  0  0  0  0  0  0
   -0.1520   -0.1499    0.2516 O   0  0  0  0  0  0  0  0  0  0  0  0
    2.0787   -0.0827    0.1140 N   0  0  0  0  0  0  0  0  0  0  0  0
    2.9260    0.4381    0.2715 H   0  0  0  0  0  0  0  0  0  0  0  0
    2.1767   -1.5195   -0.1093 C   0  0  1  0  0  0  0  0  0  0  0  0
    3.1170   -1.7133   -0.6382 H   0  0  0  0  0  0  0  0  0  0  0  0
    2.1315   -2.3031    1.1981 C   0  0  2  0  0  0  0  0  0  0  0  0
    1.1924   -2.1019    1.7068 H   0  0  0  0  0  0  0  0  0  0  0  0
    2.9612   -2.0216    1.8420 H   0  0  0  0  0  0  0  0  0  0  0  0
    2.1832   -3.3667    0.9857 H   0  0  0  0  0  0  0  0  0  0  0  0
    1.0109   -1.9348   -1.0305 C   0  0  0  0  0  0  0  0  0  0  0  0
    0.2817   -2.8704   -0.7780 O   0  0  0  0  0  0  0  0  0  0  0  0
    1.0073   -1.2243   -2.1820 N   0  0  0  0  0  0  0  0  0  0  0  0
    1.6231   -0.4197   -2.1979 H   0  0  0  0  0  0  0  0  0  0  0  0
   -0.1294   -0.9908   -3.0694 C   0  0  1  0  0  0  0  0  0  0  0  0
    0.3069   -0.7848   -4.0572 H   0  0  0  0  0  0  0  0  0  0  0  0
   -1.0753   -2.1893   -3.2375 C   0  0  1  0  0  0  0  0  0  0  0  0
   -1.6999   -2.0039   -4.1170 H   0  0  0  0  0  0  0  0  0  0  0  0
   -0.4602   -3.0781   -3.4304 H   0  0  0  0  0  0  0  0  0  0  0  0
   -1.9521   -2.4143   -2.1710 O   0  0  0  0  0  0  0  0  0  0  0  0
   -1.3986   -2.6939   -1.4136 H   0  0  0  0  0  0  0  0  0  0  0  0
   -0.7637    0.3426   -2.6025 C   0  0  0  0  0  0  0  0  0  0  0  0
   -0.0486    1.3304   -2.5248 O   0  0  0  0  0  0  0  0  0  0  0  0
   -2.0634    0.3191   -2.3143 N   0  0  0  0  0  0  0  0  0  0  0  0
   -2.5377   -0.5776   -2.2790 H   0  0  0  0  0  0  0  0  0  0  0  0
   -2.8248    1.5051   -1.9839 C   0  0  1  0  0  0  0  0  0  0  0  0
   -2.1046    2.3267   -1.8820 H   0  0  0  0  0  0  0  0  0  0  0  0
   -3.8167    1.8235   -3.1004 C   0  0  1  0  0  0  0  0  0  0  0  0
   -3.2910    2.0762   -4.0176 H   0  0  0  0  0  0  0  0  0  0  0  0
   -4.4596    0.9648   -3.2799 H   0  0  0  0  0  0  0  0  0  0  0  0
   -4.4405    2.6584   -2.7955 H   0  0  0  0  0  0  0  0  0  0  0  0
   -3.5724    1.3610   -0.6435 C   0  0  0  0  0  0  0  0  0  0  0  0
   -4.6628    1.8674   -0.4653 O   0  0  0  0  0  0  0  0  0  0  0  0
   -2.9103    0.6555    0.2830 N   0  0  0  0  0  0  0  0  0  0  0  0
   -1.9711    0.3128    0.1077 H   0  0  0  0  0  0  0  0  0  0  0  0
   -3.4554    0.4129    1.5955 C   0  0  1  0  0  0  0  0  0  0  0  0
   -4.4536    0.8471    1.6311 H   0  0  0  0  0  0  0  0  0  0  0  0
   -3.5149   -0.6595    1.7863 H   0  0  0  0  0  0  0  0  0  0  0  0
   -2.8319    0.8746    2.3640 H   0  0  0  0  0  0  0  0  0  0  0  0
  2  1  1  6
  2  4  1  0
  2  3  1  0
  2  5  1  0
  5  6  1  6
  5  7  1  0
  7  8  1  0
  7  9  1  0
  9 15  1  0
  9 10  1  6
  9 11  1  0
 11 12  1  1
 11 14  1  0
 11 13  1  0
 15 17  1  0
 15 16  2  0
 17 18  1  0
 17 19  1  0
 19 20  1  6
 19 26  1  0
 19 21  1  0
 21 24  1  0
 21 23  1  6
 21 22  1  0
 24 25  1  0
 26 28  1  0
 26 27  1  0
 28 29  1  0
 28 30  1  0
 30 32  1  0
 30 31  1  1
 30 36  1  0
 32 35  1  1
 32 34  1  0
 32 33  1  0
 36 37  1  0
 36 38  1  0
 38 39  1  0
 38 40  1  0
 40 43  1  1
 40 42  1  0
 40 41  1  0
M  END
$$$$
