 energy: -29.804057211511 gnorm: 0.000039033115 xtb: 6.5.1 (9af7eec)
     RDKit          3D

 19 18  0  0  0  0  0  0  0  0999 V2000
   -0.1372   -0.9909   -0.0594 C   0  0  2  0  0  0  0  0  0  0  0  0
    0.0045   -1.3793   -1.0731 H   0  0  0  0  0  0  0  0  0  0  0  0
   -0.0217   -1.8221    0.6500 H   0  0  0  0  0  0  0  0  0  0  0  0
   -1.4599   -0.4292    0.0296 N   0  0  0  0  0  0  0  0  0  0  0  0
   -1.5234    0.3884    0.6227 H   0  0  0  0  0  0  0  0  0  0  0  0
    0.8904    0.0871    0.2787 C   0  0  0  0  0  0  0  0  0  0  0  0
    0.5645    1.1571    0.7497 O   0  0  0  0  0  0  0  0  0  0  0  0
   -2.4014   -0.6686   -0.9151 C   0  0  0  0  0  0  0  0  0  0  0  0
   -2.2513   -1.5010   -1.7844 O   0  0  0  0  0  0  0  0  0  0  0  0
    2.1644   -0.2704    0.0316 N   0  0  0  0  0  0  0  0  0  0  0  0
    2.3564   -1.1725   -0.3737 H   0  0  0  0  0  0  0  0  0  0  0  0
    3.2858    0.5977    0.3014 C   0  0  1  0  0  0  0  0  0  0  0  0
    3.9706    0.1322    1.0123 H   0  0  0  0  0  0  0  0  0  0  0  0
    3.8254    0.8289   -0.6183 H   0  0  0  0  0  0  0  0  0  0  0  0
    2.8906    1.5174    0.7290 H   0  0  0  0  0  0  0  0  0  0  0  0
   -3.6508    0.1678   -0.7488 C   0  0  2  0  0  0  0  0  0  0  0  0
   -4.3923   -0.1431   -1.4785 H   0  0  0  0  0  0  0  0  0  0  0  0
   -3.4128    1.2180   -0.9041 H   0  0  0  0  0  0  0  0  0  0  0  0
   -4.0532    0.0458    0.2539 H   0  0  0  0  0  0  0  0  0  0  0  0
  1  4  1  0
  1  2  1  6
  1  6  1  0
  1  3  1  0
  4  8  1  0
  4  5  1  0
  6 10  1  0
  6  7  1  0
  8 16  1  0
  8  9  1  0
 10 11  1  0
 10 12  1  0
 12 14  1  6
 12 13  1  0
 12 15  1  0
 16 19  1  1
 16 18  1  0
 16 17  1  0
M  END
$$$$
