-92.47585555
     RDKit          3D

 74 76  0  0  1  0  0  0  0  0999 V2000
    3.2908    2.1679    1.9419 C   0  0  1  0  0  0  0  0  0  0  0  0
    3.2222    1.8055    0.4552 C   0  0  2  0  0  0  0  0  0  0  0  0
    1.8529    2.1381   -0.1458 C   0  0  1  0  0  0  0  0  0  0  0  0
    1.5200    3.6292   -0.1062 C   0  0  2  0  0  0  0  0  0  0  0  0
    0.1806    3.9565   -0.7737 C   0  0  1  0  0  0  0  0  0  0  0  0
   -1.0815    3.3603   -0.1148 C   0  0  2  0  0  0  0  0  0  0  0  0
   -2.3216    3.9841   -0.7694 C   0  0  1  0  0  0  0  0  0  0  0  0
   -1.1190    3.5977    1.3938 C   0  0  1  0  0  0  0  0  0  0  0  0
   -1.1315    1.9450   -0.2943 O   0  0  0  0  0  0  0  0  0  0  0  0
    3.7189    0.3658    0.1655 C   0  0  2  0  0  0  0  0  0  0  0  0
    3.9797    0.1777   -1.3478 C   0  0  2  0  0  0  0  0  0  0  0  0
    2.9275   -0.8049   -1.8868 C   0  0  2  0  0  0  0  0  0  0  0  0
    1.9821   -1.0908   -0.7106 C   0  0  2  0  0  0  0  0  0  0  0  0
    2.8511   -0.8653    0.5438 C   0  0  1  0  0  0  0  0  0  0  0  0
    3.8027   -2.0624    0.7362 C   0  0  1  0  0  0  0  0  0  0  0  0
    3.0830   -3.4077    0.7527 C   0  0  1  0  0  0  0  0  0  0  0  0
    2.2630   -3.6002   -0.5248 C   0  0  2  0  0  0  0  0  0  0  0  0
    1.3342   -2.4414   -0.7282 C   0  0  0  0  0  0  0  0  0  0  0  0
    0.0092   -2.6194   -0.8352 C   0  0  0  0  0  0  0  0  0  0  0  0
   -0.9581   -1.5761   -1.0695 C   0  0  0  0  0  0  0  0  0  0  0  0
   -2.2780   -1.6194   -0.8276 C   0  0  0  0  0  0  0  0  0  0  0  0
   -3.0145   -2.7662   -0.2011 C   0  0  1  0  0  0  0  0  0  0  0  0
   -3.8575   -2.3131    1.0101 C   0  0  2  0  0  0  0  0  0  0  0  0
   -4.7719   -1.1483    0.6135 C   0  0  2  0  0  0  0  0  0  0  0  0
   -3.9647    0.0202    0.0388 C   0  0  2  0  0  0  0  0  0  0  0  0
   -3.1101   -0.4450   -1.1174 C   0  0  0  0  0  0  0  0  0  0  0  0
   -3.0764    0.2122   -2.2717 C   0  0  0  0  0  0  0  0  0  0  0  0
   -3.1504    0.5568    1.0705 O   0  0  0  0  0  0  0  0  0  0  0  0
   -3.0514   -1.9961    2.1133 O   0  0  0  0  0  0  0  0  0  0  0  0
    1.9811   -0.7246    1.7890 C   0  0  1  0  0  0  0  0  0  0  0  0
    4.1697    1.7219    2.4019 H   0  0  0  0  0  0  0  0  0  0  0  0
    3.3676    3.2463    2.0621 H   0  0  0  0  0  0  0  0  0  0  0  0
    2.4131    1.8310    2.4830 H   0  0  0  0  0  0  0  0  0  0  0  0
    3.9581    2.4481   -0.0492 H   0  0  0  0  0  0  0  0  0  0  0  0
    1.8365    1.8178   -1.1893 H   0  0  0  0  0  0  0  0  0  0  0  0
    1.0712    1.6001    0.3848 H   0  0  0  0  0  0  0  0  0  0  0  0
    2.3012    4.1859   -0.6320 H   0  0  0  0  0  0  0  0  0  0  0  0
    1.5030    3.9842    0.9232 H   0  0  0  0  0  0  0  0  0  0  0  0
    0.0607    5.0418   -0.7895 H   0  0  0  0  0  0  0  0  0  0  0  0
    0.2118    3.6159   -1.8139 H   0  0  0  0  0  0  0  0  0  0  0  0
   -2.3786    5.0453   -0.5457 H   0  0  0  0  0  0  0  0  0  0  0  0
   -2.2886    3.8595   -1.8512 H   0  0  0  0  0  0  0  0  0  0  0  0
   -3.2200    3.5011   -0.3906 H   0  0  0  0  0  0  0  0  0  0  0  0
   -0.3459    3.0152    1.8849 H   0  0  0  0  0  0  0  0  0  0  0  0
   -0.9706    4.6509    1.6130 H   0  0  0  0  0  0  0  0  0  0  0  0
   -2.0807    3.2830    1.7908 H   0  0  0  0  0  0  0  0  0  0  0  0
   -1.2205    1.7498   -1.2354 H   0  0  0  0  0  0  0  0  0  0  0  0
    4.6692    0.2839    0.7043 H   0  0  0  0  0  0  0  0  0  0  0  0
    4.9841   -0.2133   -1.5137 H   0  0  0  0  0  0  0  0  0  0  0  0
    3.9260    1.1329   -1.8692 H   0  0  0  0  0  0  0  0  0  0  0  0
    3.4019   -1.7221   -2.2332 H   0  0  0  0  0  0  0  0  0  0  0  0
    2.3784   -0.3887   -2.7323 H   0  0  0  0  0  0  0  0  0  0  0  0
    1.2055   -0.3297   -0.6976 H   0  0  0  0  0  0  0  0  0  0  0  0
    4.5368   -2.0755   -0.0704 H   0  0  0  0  0  0  0  0  0  0  0  0
    4.3476   -1.9336    1.6749 H   0  0  0  0  0  0  0  0  0  0  0  0
    3.8195   -4.2104    0.8391 H   0  0  0  0  0  0  0  0  0  0  0  0
    2.4226   -3.4761    1.6181 H   0  0  0  0  0  0  0  0  0  0  0  0
    1.7002   -4.5341   -0.4722 H   0  0  0  0  0  0  0  0  0  0  0  0
    2.9481   -3.6748   -1.3746 H   0  0  0  0  0  0  0  0  0  0  0  0
   -0.3779   -3.6271   -0.7551 H   0  0  0  0  0  0  0  0  0  0  0  0
   -0.5722   -0.6517   -1.4772 H   0  0  0  0  0  0  0  0  0  0  0  0
   -3.6912   -3.2040   -0.9419 H   0  0  0  0  0  0  0  0  0  0  0  0
   -2.3211   -3.5345    0.1366 H   0  0  0  0  0  0  0  0  0  0  0  0
   -4.4752   -3.1632    1.3312 H   0  0  0  0  0  0  0  0  0  0  0  0
   -5.3092   -0.8006    1.4976 H   0  0  0  0  0  0  0  0  0  0  0  0
   -5.4951   -1.4813   -0.1325 H   0  0  0  0  0  0  0  0  0  0  0  0
   -4.6611    0.8026   -0.3119 H   0  0  0  0  0  0  0  0  0  0  0  0
   -3.6895    1.0812   -2.4488 H   0  0  0  0  0  0  0  0  0  0  0  0
   -2.4625   -0.1218   -3.0917 H   0  0  0  0  0  0  0  0  0  0  0  0
   -2.4223    1.0672    0.6668 H   0  0  0  0  0  0  0  0  0  0  0  0
   -2.7552   -1.0785    1.9890 H   0  0  0  0  0  0  0  0  0  0  0  0
    2.5940   -0.5572    2.6711 H   0  0  0  0  0  0  0  0  0  0  0  0
    1.2672    0.0855    1.6925 H   0  0  0  0  0  0  0  0  0  0  0  0
    1.4048   -1.6345    1.9374 H   0  0  0  0  0  0  0  0  0  0  0  0
  1 32  1  6
  1 31  1  0
  1 33  1  0
  2 34  1  6
  2  1  1  0
  3  4  1  0
  3 36  1  1
  3  2  1  0
  4 38  1  1
  5  6  1  0
  5  4  1  0
  6  8  1  0
  7 41  1  6
  7 43  1  0
  7  6  1  0
  8 45  1  6
  8 46  1  0
  8 44  1  0
  6  9  1  1
 10  2  1  0
 10 14  1  0
 10 48  1  1
 11 10  1  0
 12 11  1  0
 12 13  1  0
 13 53  1  1
 14 13  1  6
 14 15  1  0
 14 30  1  0
 15 16  1  0
 15 55  1  1
 16 56  1  1
 16 57  1  0
 17 58  1  1
 17 16  1  0
 18 13  1  0
 18 17  1  0
 19 60  1  0
 19 18  2  0
 20 19  1  0
 20 21  2  0
 21 22  1  0
 22 63  1  1
 22 23  1  0
 23 64  1  1
 23 29  1  0
 24 23  1  0
 24 65  1  1
 25 67  1  6
 25 24  1  0
 25 28  1  0
 26 21  1  0
 26 25  1  0
 27 26  2  0
 30 74  1  1
 30 72  1  0
 35  3  1  0
 37  4  1  0
  5 39  1  6
 40  5  1  0
 42  7  1  0
 47  9  1  0
 11 49  1  1
 50 11  1  0
 12 51  1  6
 52 12  1  0
 54 15  1  0
 59 17  1  0
 61 20  1  0
 62 22  1  0
 66 24  1  0
 68 27  1  0
 69 27  1  0
 70 28  1  0
 71 29  1  0
 73 30  1  0
M  END
$$$$
