-92.46951158
     RDKit          3D

 74 76  0  0  1  0  0  0  0  0999 V2000
    3.2581    2.0387    1.7427 C   0  0  1  0  0  0  0  0  0  0  0  0
    2.7949    1.7045    0.3231 C   0  0  2  0  0  0  0  0  0  0  0  0
    1.3047    2.0196    0.1445 C   0  0  1  0  0  0  0  0  0  0  0  0
    1.0452    3.5147   -0.0433 C   0  0  2  0  0  0  0  0  0  0  0  0
   -0.4386    3.8573   -0.2014 C   0  0  1  0  0  0  0  0  0  0  0  0
   -1.3603    3.4946    0.9832 C   0  0  2  0  0  0  0  0  0  0  0  0
   -2.7407    4.1203    0.7306 C   0  0  1  0  0  0  0  0  0  0  0  0
   -0.8088    3.9845    2.3215 C   0  0  1  0  0  0  0  0  0  0  0  0
   -1.5103    2.0874    1.0888 O   0  0  0  0  0  0  0  0  0  0  0  0
    3.2479    0.2939   -0.1286 C   0  0  2  0  0  0  0  0  0  0  0  0
    3.1382    0.1754   -1.6686 C   0  0  2  0  0  0  0  0  0  0  0  0
    2.5269   -1.1896   -1.9790 C   0  0  2  0  0  0  0  0  0  0  0  0
    1.7052   -1.5154   -0.7255 C   0  0  2  0  0  0  0  0  0  0  0  0
    2.5913   -1.0069    0.4334 C   0  0  1  0  0  0  0  0  0  0  0  0
    3.7294   -2.0121    0.6979 C   0  0  1  0  0  0  0  0  0  0  0  0
    3.2253   -3.4300    0.9369 C   0  0  1  0  0  0  0  0  0  0  0  0
    2.4272   -3.9164   -0.2692 C   0  0  2  0  0  0  0  0  0  0  0  0
    1.3253   -2.9637   -0.6444 C   0  0  0  0  0  0  0  0  0  0  0  0
    0.1332   -3.4422   -1.0059 C   0  0  0  0  0  0  0  0  0  0  0  0
   -1.0360   -2.7658   -1.5552 C   0  0  0  0  0  0  0  0  0  0  0  0
   -1.8181   -1.8176   -1.0213 C   0  0  0  0  0  0  0  0  0  0  0  0
   -1.5668   -1.1919    0.3185 C   0  0  1  0  0  0  0  0  0  0  0  0
   -2.8691   -0.9111    1.0850 C   0  0  2  0  0  0  0  0  0  0  0  0
   -3.8579   -0.0671    0.2465 C   0  0  2  0  0  0  0  0  0  0  0  0
   -3.4739    0.0365   -1.2316 C   0  0  2  0  0  0  0  0  0  0  0  0
   -2.9975   -1.3076   -1.7253 C   0  0  0  0  0  0  0  0  0  0  0  0
   -3.6599   -1.9398   -2.6917 C   0  0  0  0  0  0  0  0  0  0  0  0
   -2.4723    1.0430   -1.3818 O   0  0  0  0  0  0  0  0  0  0  0  0
   -2.5995   -0.3004    2.3205 O   0  0  0  0  0  0  0  0  0  0  0  0
    1.7741   -0.8728    1.7156 C   0  0  1  0  0  0  0  0  0  0  0  0
    4.2981    1.7513    1.8832 H   0  0  0  0  0  0  0  0  0  0  0  0
    3.1830    3.1094    1.9194 H   0  0  0  0  0  0  0  0  0  0  0  0
    2.6570    1.5325    2.4904 H   0  0  0  0  0  0  0  0  0  0  0  0
    3.3470    2.3787   -0.3476 H   0  0  0  0  0  0  0  0  0  0  0  0
    0.9105    1.4892   -0.7242 H   0  0  0  0  0  0  0  0  0  0  0  0
    0.7462    1.6915    1.0173 H   0  0  0  0  0  0  0  0  0  0  0  0
    1.5674    3.8619   -0.9402 H   0  0  0  0  0  0  0  0  0  0  0  0
    1.4528    4.0692    0.8021 H   0  0  0  0  0  0  0  0  0  0  0  0
   -0.5247    4.9320   -0.3760 H   0  0  0  0  0  0  0  0  0  0  0  0
   -0.8278    3.3469   -1.0878 H   0  0  0  0  0  0  0  0  0  0  0  0
   -2.6793    5.2050    0.7313 H   0  0  0  0  0  0  0  0  0  0  0  0
   -3.1311    3.7911   -0.2310 H   0  0  0  0  0  0  0  0  0  0  0  0
   -3.4324    3.8093    1.5106 H   0  0  0  0  0  0  0  0  0  0  0  0
    0.0957    3.4424    2.5794 H   0  0  0  0  0  0  0  0  0  0  0  0
   -0.5912    5.0476    2.2735 H   0  0  0  0  0  0  0  0  0  0  0  0
   -1.5430    3.8065    3.1033 H   0  0  0  0  0  0  0  0  0  0  0  0
   -1.8514    1.7689    0.2348 H   0  0  0  0  0  0  0  0  0  0  0  0
    4.3077    0.2545    0.1452 H   0  0  0  0  0  0  0  0  0  0  0  0
    4.1114    0.2955   -2.1452 H   0  0  0  0  0  0  0  0  0  0  0  0
    2.4911    0.9617   -2.0571 H   0  0  0  0  0  0  0  0  0  0  0  0
    3.3048   -1.9373   -2.1304 H   0  0  0  0  0  0  0  0  0  0  0  0
    1.9051   -1.1719   -2.8744 H   0  0  0  0  0  0  0  0  0  0  0  0
    0.7984   -0.9107   -0.7580 H   0  0  0  0  0  0  0  0  0  0  0  0
    4.4110   -2.0274   -0.1546 H   0  0  0  0  0  0  0  0  0  0  0  0
    4.3000   -1.6759    1.5673 H   0  0  0  0  0  0  0  0  0  0  0  0
    4.0761   -4.0958    1.1019 H   0  0  0  0  0  0  0  0  0  0  0  0
    2.6029   -3.4698    1.8313 H   0  0  0  0  0  0  0  0  0  0  0  0
    2.0141   -4.9077   -0.0719 H   0  0  0  0  0  0  0  0  0  0  0  0
    3.1083   -4.0111   -1.1218 H   0  0  0  0  0  0  0  0  0  0  0  0
    0.0136   -4.5232   -1.0129 H   0  0  0  0  0  0  0  0  0  0  0  0
   -1.3271   -3.1731   -2.5182 H   0  0  0  0  0  0  0  0  0  0  0  0
   -0.9364   -1.8484    0.9186 H   0  0  0  0  0  0  0  0  0  0  0  0
   -1.0420   -0.2408    0.1989 H   0  0  0  0  0  0  0  0  0  0  0  0
   -3.3375   -1.8695    1.3384 H   0  0  0  0  0  0  0  0  0  0  0  0
   -3.9039    0.9402    0.6641 H   0  0  0  0  0  0  0  0  0  0  0  0
   -4.8576   -0.4966    0.3112 H   0  0  0  0  0  0  0  0  0  0  0  0
   -4.3576    0.3513   -1.8090 H   0  0  0  0  0  0  0  0  0  0  0  0
   -4.5207   -1.4967   -3.1638 H   0  0  0  0  0  0  0  0  0  0  0  0
   -3.3880   -2.9228   -3.0322 H   0  0  0  0  0  0  0  0  0  0  0  0
   -2.0580    0.9332   -2.2440 H   0  0  0  0  0  0  0  0  0  0  0  0
   -2.1640    0.5514    2.1451 H   0  0  0  0  0  0  0  0  0  0  0  0
    2.4177   -0.6487    2.5624 H   0  0  0  0  0  0  0  0  0  0  0  0
    1.0122   -0.1089    1.6370 H   0  0  0  0  0  0  0  0  0  0  0  0
    1.2667   -1.8127    1.9200 H   0  0  0  0  0  0  0  0  0  0  0  0
  1 31  1  6
  1 32  1  0
  1 33  1  0
  2 34  1  6
  2  1  1  0
  3  2  1  0
  3 36  1  1
  4  3  1  0
  4 38  1  1
  5  4  1  0
  5  6  1  0
  6  9  1  1
  6  8  1  0
  7 41  1  6
  7  6  1  0
  7 43  1  0
  8 44  1  1
  8 46  1  0
 10 48  1  6
 10  2  1  0
 10 14  1  0
 11 10  1  0
 12 11  1  0
 12 13  1  0
 13 18  1  0
 14 13  1  6
 14 15  1  0
 14 30  1  0
 15 16  1  0
 15 55  1  1
 16 56  1  1
 16 57  1  0
 17 58  1  1
 17 16  1  0
 18 17  1  0
 19 18  2  0
 20 21  2  0
 20 19  1  0
 21 22  1  0
 22 62  1  1
 22 23  1  0
 23 64  1  1
 23 29  1  0
 24 66  1  6
 24 65  1  0
 24 23  1  0
 25 67  1  6
 25 24  1  0
 26 25  1  0
 26 21  1  0
 27 26  2  0
 28 25  1  0
 30 74  1  1
 30 72  1  0
 35  3  1  0
 37  4  1  0
  5 39  1  6
 40  5  1  0
 42  7  1  0
 45  8  1  0
 47  9  1  0
 11 49  1  6
 50 11  1  0
 12 51  1  6
 52 12  1  0
 13 53  1  6
 54 15  1  0
 59 17  1  0
 60 19  1  0
 61 20  1  0
 63 22  1  0
 68 27  1  0
 69 27  1  0
 70 28  1  0
 71 29  1  0
 73 30  1  0
M  END
$$$$
