-92.46934692
     RDKit          3D

 74 76  0  0  1  0  0  0  0  0999 V2000
    2.8022    2.7678   -2.4254 C   0  0  1  0  0  0  0  0  0  0  0  0
    2.2569    2.2162   -1.1054 C   0  0  2  0  0  0  0  0  0  0  0  0
    2.9403    2.9566    0.0563 C   0  0  1  0  0  0  0  0  0  0  0  0
    2.2657    4.2859    0.3868 C   0  0  2  0  0  0  0  0  0  0  0  0
    2.9573    4.9940    1.5502 C   0  0  1  0  0  0  0  0  0  0  0  0
    2.4910    6.4507    1.7474 C   0  0  2  0  0  0  0  0  0  0  0  0
    3.2733    7.0747    2.9114 C   0  0  1  0  0  0  0  0  0  0  0  0
    0.9909    6.5313    2.0293 C   0  0  1  0  0  0  0  0  0  0  0  0
    2.7103    7.2000    0.5616 O   0  0  0  0  0  0  0  0  0  0  0  0
    2.4910    0.6990   -1.0042 C   0  0  2  0  0  0  0  0  0  0  0  0
    2.1604   -0.0539   -2.3050 C   0  0  2  0  0  0  0  0  0  0  0  0
    1.8771   -1.4797   -1.8554 C   0  0  2  0  0  0  0  0  0  0  0  0
    1.0042   -1.2335   -0.6230 C   0  0  2  0  0  0  0  0  0  0  0  0
    1.7210   -0.0765    0.1256 C   0  0  1  0  0  0  0  0  0  0  0  0
    2.7477   -0.6122    1.1381 C   0  0  1  0  0  0  0  0  0  0  0  0
    2.2104   -1.7336    2.0168 C   0  0  1  0  0  0  0  0  0  0  0  0
    1.7806   -2.9010    1.1318 C   0  0  2  0  0  0  0  0  0  0  0  0
    0.7052   -2.4573    0.1871 C   0  0  0  0  0  0  0  0  0  0  0  0
   -0.4406   -3.1528    0.0988 C   0  0  0  0  0  0  0  0  0  0  0  0
   -1.5505   -2.8833   -0.7727 C   0  0  0  0  0  0  0  0  0  0  0  0
   -2.7021   -3.5761   -0.8496 C   0  0  0  0  0  0  0  0  0  0  0  0
   -3.0618   -4.7706   -0.0145 C   0  0  1  0  0  0  0  0  0  0  0  0
   -4.4635   -4.6470    0.6159 C   0  0  2  0  0  0  0  0  0  0  0  0
   -5.5049   -4.3437   -0.4661 C   0  0  2  0  0  0  0  0  0  0  0  0
   -5.1401   -3.0898   -1.2621 C   0  0  2  0  0  0  0  0  0  0  0  0
   -3.7337   -3.1728   -1.8133 C   0  0  0  0  0  0  0  0  0  0  0  0
   -3.4689   -2.8425   -3.0731 C   0  0  0  0  0  0  0  0  0  0  0  0
   -5.2533   -1.9646   -0.3925 O   0  0  0  0  0  0  0  0  0  0  0  0
   -4.4875   -3.7030    1.6539 O   0  0  0  0  0  0  0  0  0  0  0  0
    0.6425    0.7242    0.8593 C   0  0  1  0  0  0  0  0  0  0  0  0
    2.7438    3.8536   -2.4254 H   0  0  0  0  0  0  0  0  0  0  0  0
    3.8441    2.4821   -2.5560 H   0  0  0  0  0  0  0  0  0  0  0  0
    2.2359    2.4047   -3.2781 H   0  0  0  0  0  0  0  0  0  0  0  0
    1.1840    2.4220   -1.0777 H   0  0  0  0  0  0  0  0  0  0  0  0
    2.9391    2.3357    0.9518 H   0  0  0  0  0  0  0  0  0  0  0  0
    3.9867    3.1320   -0.2065 H   0  0  0  0  0  0  0  0  0  0  0  0
    1.2217    4.0987    0.6427 H   0  0  0  0  0  0  0  0  0  0  0  0
    2.2831    4.9448   -0.4830 H   0  0  0  0  0  0  0  0  0  0  0  0
    2.7896    4.4405    2.4759 H   0  0  0  0  0  0  0  0  0  0  0  0
    4.0362    5.0039    1.3638 H   0  0  0  0  0  0  0  0  0  0  0  0
    3.0132    8.1263    3.0078 H   0  0  0  0  0  0  0  0  0  0  0  0
    3.0361    6.5682    3.8427 H   0  0  0  0  0  0  0  0  0  0  0  0
    4.3461    6.9981    2.7389 H   0  0  0  0  0  0  0  0  0  0  0  0
    0.4340    6.2414    1.1440 H   0  0  0  0  0  0  0  0  0  0  0  0
    0.7236    5.8805    2.8565 H   0  0  0  0  0  0  0  0  0  0  0  0
    0.7221    7.5544    2.2774 H   0  0  0  0  0  0  0  0  0  0  0  0
    3.6548    7.1990    0.3705 H   0  0  0  0  0  0  0  0  0  0  0  0
    3.5631    0.5716   -0.8193 H   0  0  0  0  0  0  0  0  0  0  0  0
    2.9713    0.0031   -3.0292 H   0  0  0  0  0  0  0  0  0  0  0  0
    1.2596    0.3620   -2.7607 H   0  0  0  0  0  0  0  0  0  0  0  0
    2.8011   -1.9906   -1.5831 H   0  0  0  0  0  0  0  0  0  0  0  0
    1.3639   -2.0725   -2.6121 H   0  0  0  0  0  0  0  0  0  0  0  0
    0.0605   -0.8219   -0.9911 H   0  0  0  0  0  0  0  0  0  0  0  0
    3.6145   -1.0025    0.5992 H   0  0  0  0  0  0  0  0  0  0  0  0
    3.0973    0.2128    1.7635 H   0  0  0  0  0  0  0  0  0  0  0  0
    2.9903   -2.0593    2.7089 H   0  0  0  0  0  0  0  0  0  0  0  0
    1.3616   -1.3910    2.6100 H   0  0  0  0  0  0  0  0  0  0  0  0
    1.4289   -3.7346    1.7421 H   0  0  0  0  0  0  0  0  0  0  0  0
    2.6479   -3.2470    0.5604 H   0  0  0  0  0  0  0  0  0  0  0  0
   -0.5385   -4.0201    0.7379 H   0  0  0  0  0  0  0  0  0  0  0  0
   -1.4518   -2.0350   -1.4367 H   0  0  0  0  0  0  0  0  0  0  0  0
   -3.0532   -5.6607   -0.6517 H   0  0  0  0  0  0  0  0  0  0  0  0
   -2.3431   -4.9173    0.7895 H   0  0  0  0  0  0  0  0  0  0  0  0
   -4.7088   -5.6063    1.0913 H   0  0  0  0  0  0  0  0  0  0  0  0
   -6.4764   -4.1868    0.0058 H   0  0  0  0  0  0  0  0  0  0  0  0
   -5.5774   -5.1869   -1.1542 H   0  0  0  0  0  0  0  0  0  0  0  0
   -5.8546   -2.9698   -2.0931 H   0  0  0  0  0  0  0  0  0  0  0  0
   -4.2443   -2.5344   -3.7553 H   0  0  0  0  0  0  0  0  0  0  0  0
   -2.4706   -2.8959   -3.4721 H   0  0  0  0  0  0  0  0  0  0  0  0
   -4.9410   -1.1823   -0.8588 H   0  0  0  0  0  0  0  0  0  0  0  0
   -4.5885   -2.8302    1.2452 H   0  0  0  0  0  0  0  0  0  0  0  0
   -0.0503    1.1818    0.1577 H   0  0  0  0  0  0  0  0  0  0  0  0
    0.0670    0.0510    1.4914 H   0  0  0  0  0  0  0  0  0  0  0  0
    1.0618    1.5036    1.4880 H   0  0  0  0  0  0  0  0  0  0  0  0
  1  2  1  0
  2 34  1  6
  2 10  1  0
  2  3  1  0
  3  4  1  0
  3 35  1  1
  4 37  1  1
  4  5  1  0
  5  6  1  0
  5 39  1  1
  6  8  1  0
  6  7  1  0
  7 41  1  1
  7 42  1  0
  8 46  1  1
  8 45  1  0
  6  9  1  6
 10 48  1  1
 10 14  1  0
 11 12  1  0
 11 10  1  0
 12 51  1  1
 12 13  1  0
 14 13  1  6
 13 18  1  0
 14 30  1  0
 14 15  1  0
 15 55  1  1
 15 16  1  0
 16 57  1  1
 16 56  1  0
 17 58  1  1
 17 16  1  0
 18 17  1  0
 19 18  2  0
 19 60  1  0
 20 19  1  0
 21 20  2  0
 21 22  1  0
 22 23  1  0
 22 63  1  1
 23 64  1  1
 23 29  1  0
 24 65  1  1
 24 23  1  0
 25 67  1  6
 25 24  1  0
 25 28  1  0
 26 25  1  0
 26 21  1  0
 27 26  2  0
 30 74  1  1
 30 73  1  0
  1 31  1  1
 32  1  1  0
 33  1  1  0
 36  3  1  0
 38  4  1  0
 40  5  1  0
 43  7  1  0
 44  8  1  0
 47  9  1  0
 11 49  1  6
 50 11  1  0
 52 12  1  0
 13 53  1  6
 54 15  1  0
 59 17  1  0
 61 20  1  0
 62 22  1  0
 66 24  1  0
 68 27  1  0
 69 27  1  0
 70 28  1  0
 71 29  1  0
 72 30  1  0
M  END
$$$$
