-92.47582484
     RDKit          3D

 74 76  0  0  1  0  0  0  0  0999 V2000
    3.3536    2.2029    1.8848 C   0  0  1  0  0  0  0  0  0  0  0  0
    3.2486    1.8196    0.4054 C   0  0  2  0  0  0  0  0  0  0  0  0
    1.8649    2.1426   -0.1673 C   0  0  1  0  0  0  0  0  0  0  0  0
    1.5212    3.6310   -0.1226 C   0  0  2  0  0  0  0  0  0  0  0  0
    0.1615    3.9453   -0.7545 C   0  0  1  0  0  0  0  0  0  0  0  0
   -1.0771    3.3339   -0.0656 C   0  0  2  0  0  0  0  0  0  0  0  0
   -2.3398    3.9546   -0.6787 C   0  0  1  0  0  0  0  0  0  0  0  0
   -1.0746    3.5561    1.4457 C   0  0  1  0  0  0  0  0  0  0  0  0
   -1.1225    1.9199   -0.2577 O   0  0  0  0  0  0  0  0  0  0  0  0
    3.7388    0.3757    0.1251 C   0  0  2  0  0  0  0  0  0  0  0  0
    3.9674    0.1661   -1.3905 C   0  0  2  0  0  0  0  0  0  0  0  0
    2.9034   -0.8228   -1.8931 C   0  0  2  0  0  0  0  0  0  0  0  0
    1.9830   -1.0912   -0.6931 C   0  0  2  0  0  0  0  0  0  0  0  0
    2.8782   -0.8491    0.5393 C   0  0  1  0  0  0  0  0  0  0  0  0
    3.8316   -2.0450    0.7292 C   0  0  1  0  0  0  0  0  0  0  0  0
    3.1084   -3.3873    0.7837 C   0  0  1  0  0  0  0  0  0  0  0  0
    2.2608   -3.5989   -0.4724 C   0  0  2  0  0  0  0  0  0  0  0  0
    1.3327   -2.4408   -0.6838 C   0  0  0  0  0  0  0  0  0  0  0  0
    0.0071   -2.6183   -0.7884 C   0  0  0  0  0  0  0  0  0  0  0  0
   -0.9566   -1.5767   -1.0413 C   0  0  0  0  0  0  0  0  0  0  0  0
   -2.2814   -1.6186   -0.8269 C   0  0  0  0  0  0  0  0  0  0  0  0
   -3.0345   -2.7642   -0.2186 C   0  0  1  0  0  0  0  0  0  0  0  0
   -3.9113   -2.3112    0.9685 C   0  0  2  0  0  0  0  0  0  0  0  0
   -4.8110   -1.1430    0.5490 C   0  0  2  0  0  0  0  0  0  0  0  0
   -3.9846    0.0241   -0.0006 C   0  0  2  0  0  0  0  0  0  0  0  0
   -3.1039   -0.4422   -1.1362 C   0  0  0  0  0  0  0  0  0  0  0  0
   -3.0411    0.2156   -2.2890 C   0  0  0  0  0  0  0  0  0  0  0  0
   -3.1939    0.5546    1.0527 O   0  0  0  0  0  0  0  0  0  0  0  0
   -3.1371   -1.9992    2.0956 O   0  0  0  0  0  0  0  0  0  0  0  0
    2.0355   -0.6893    1.8009 C   0  0  1  0  0  0  0  0  0  0  0  0
    4.2428    1.7617    2.3295 H   0  0  0  0  0  0  0  0  0  0  0  0
    3.4351    3.2827    1.9880 H   0  0  0  0  0  0  0  0  0  0  0  0
    2.4888    1.8750    2.4518 H   0  0  0  0  0  0  0  0  0  0  0  0
    3.9717    2.4553   -0.1257 H   0  0  0  0  0  0  0  0  0  0  0  0
    1.8288    1.8197   -1.2096 H   0  0  0  0  0  0  0  0  0  0  0  0
    1.0981    1.6005    0.3804 H   0  0  0  0  0  0  0  0  0  0  0  0
    2.2834    4.1933   -0.6700 H   0  0  0  0  0  0  0  0  0  0  0  0
    1.5280    3.9883    0.9060 H   0  0  0  0  0  0  0  0  0  0  0  0
    0.0299    5.0294   -0.7641 H   0  0  0  0  0  0  0  0  0  0  0  0
    0.1694    3.6079   -1.7962 H   0  0  0  0  0  0  0  0  0  0  0  0
   -3.2236    3.4621   -0.2785 H   0  0  0  0  0  0  0  0  0  0  0  0
   -2.3975    5.0134   -0.4438 H   0  0  0  0  0  0  0  0  0  0  0  0
   -2.3370    3.8399   -1.7621 H   0  0  0  0  0  0  0  0  0  0  0  0
   -2.0211    3.2254    1.8659 H   0  0  0  0  0  0  0  0  0  0  0  0
   -0.2811    2.9787    1.9095 H   0  0  0  0  0  0  0  0  0  0  0  0
   -0.9331    4.6089    1.6712 H   0  0  0  0  0  0  0  0  0  0  0  0
   -1.2227    1.7336   -1.1998 H   0  0  0  0  0  0  0  0  0  0  0  0
    4.7004    0.3006    0.6445 H   0  0  0  0  0  0  0  0  0  0  0  0
    4.9678   -0.2283   -1.5720 H   0  0  0  0  0  0  0  0  0  0  0  0
    3.9034    1.1139   -1.9242 H   0  0  0  0  0  0  0  0  0  0  0  0
    3.3694   -1.7456   -2.2362 H   0  0  0  0  0  0  0  0  0  0  0  0
    2.3366   -0.4183   -2.7325 H   0  0  0  0  0  0  0  0  0  0  0  0
    1.2080   -0.3287   -0.6740 H   0  0  0  0  0  0  0  0  0  0  0  0
    4.5471   -2.0731   -0.0936 H   0  0  0  0  0  0  0  0  0  0  0  0
    4.3980   -1.9028    1.6532 H   0  0  0  0  0  0  0  0  0  0  0  0
    3.8441   -4.1910    0.8677 H   0  0  0  0  0  0  0  0  0  0  0  0
    2.4669   -3.4393    1.6643 H   0  0  0  0  0  0  0  0  0  0  0  0
    1.6952   -4.5291   -0.3910 H   0  0  0  0  0  0  0  0  0  0  0  0
    2.9283   -3.6930   -1.3345 H   0  0  0  0  0  0  0  0  0  0  0  0
   -0.3818   -3.6239   -0.6936 H   0  0  0  0  0  0  0  0  0  0  0  0
   -0.5635   -0.6527   -1.4427 H   0  0  0  0  0  0  0  0  0  0  0  0
   -3.6902   -3.2033   -0.9775 H   0  0  0  0  0  0  0  0  0  0  0  0
   -2.3504   -3.5321    0.1386 H   0  0  0  0  0  0  0  0  0  0  0  0
   -4.5403   -3.1605    1.2693 H   0  0  0  0  0  0  0  0  0  0  0  0
   -5.3720   -0.7958    1.4184 H   0  0  0  0  0  0  0  0  0  0  0  0
   -5.5139   -1.4721   -0.2179 H   0  0  0  0  0  0  0  0  0  0  0  0
   -4.6685    0.8107   -0.3663 H   0  0  0  0  0  0  0  0  0  0  0  0
   -3.6479    1.0862   -2.4800 H   0  0  0  0  0  0  0  0  0  0  0  0
   -2.4092   -0.1196   -3.0947 H   0  0  0  0  0  0  0  0  0  0  0  0
   -2.4463    1.0524    0.6689 H   0  0  0  0  0  0  0  0  0  0  0  0
   -2.8336   -1.0827    1.9816 H   0  0  0  0  0  0  0  0  0  0  0  0
    1.4608   -1.5958    1.9742 H   0  0  0  0  0  0  0  0  0  0  0  0
    2.6678   -0.5112    2.6672 H   0  0  0  0  0  0  0  0  0  0  0  0
    1.3211    0.1209    1.7093 H   0  0  0  0  0  0  0  0  0  0  0  0
  1 32  1  6
  1 31  1  0
  1 33  1  0
  2 34  1  6
  2  1  1  0
  3  4  1  0
  3 36  1  1
  3  2  1  0
  4 38  1  1
  5  4  1  0
  5  6  1  0
  6  8  1  0
  7 42  1  6
  7 41  1  0
  7  6  1  0
  8 46  1  6
  8 44  1  0
  8 45  1  0
  6  9  1  1
 10  2  1  0
 10 14  1  0
 10 48  1  1
 11 10  1  0
 12 11  1  0
 12 13  1  0
 13 18  1  0
 13 53  1  1
 14 13  1  6
 14 15  1  0
 14 30  1  0
 15 16  1  0
 15 55  1  1
 16 56  1  1
 16 57  1  0
 17 58  1  1
 17 16  1  0
 18 17  1  0
 19 60  1  0
 19 18  2  0
 20 21  2  0
 20 19  1  0
 21 22  1  0
 22 63  1  1
 22 23  1  0
 23 64  1  1
 23 29  1  0
 24 23  1  0
 24 65  1  1
 25 67  1  6
 25 24  1  0
 25 28  1  0
 26 21  1  0
 26 25  1  0
 27 26  2  0
 30 72  1  1
 30 73  1  0
 35  3  1  0
 37  4  1  0
  5 39  1  6
 40  5  1  0
 43  7  1  0
 47  9  1  0
 11 49  1  1
 50 11  1  0
 12 51  1  6
 52 12  1  0
 54 15  1  0
 59 17  1  0
 61 20  1  0
 62 22  1  0
 66 24  1  0
 68 27  1  0
 69 27  1  0
 70 28  1  0
 71 29  1  0
 74 30  1  0
M  END
$$$$
