-92.47384120
     RDKit          3D

 74 76  0  0  1  0  0  0  0  0999 V2000
    3.0714    1.9287    1.9253 C   0  0  1  0  0  0  0  0  0  0  0  0
    2.6863    1.6418    0.4727 C   0  0  2  0  0  0  0  0  0  0  0  0
    1.2078    1.9851    0.2241 C   0  0  1  0  0  0  0  0  0  0  0  0
    1.0410    3.4683   -0.1117 C   0  0  2  0  0  0  0  0  0  0  0  0
   -0.4040    3.9093   -0.3564 C   0  0  1  0  0  0  0  0  0  0  0  0
   -1.3776    3.8614    0.8410 C   0  0  2  0  0  0  0  0  0  0  0  0
   -2.6140    4.7035    0.4840 C   0  0  1  0  0  0  0  0  0  0  0  0
   -0.7530    4.3887    2.1322 C   0  0  1  0  0  0  0  0  0  0  0  0
   -1.8021    2.5317    1.1018 O   0  0  0  0  0  0  0  0  0  0  0  0
    3.1717    0.2529   -0.0105 C   0  0  2  0  0  0  0  0  0  0  0  0
    3.1200    0.1906   -1.5570 C   0  0  2  0  0  0  0  0  0  0  0  0
    2.5580   -1.1779   -1.9379 C   0  0  2  0  0  0  0  0  0  0  0  0
    1.6876   -1.5533   -0.7361 C   0  0  2  0  0  0  0  0  0  0  0  0
    2.5089   -1.0717    0.4790 C   0  0  1  0  0  0  0  0  0  0  0  0
    3.6401   -2.0756    0.7738 C   0  0  1  0  0  0  0  0  0  0  0  0
    3.1350   -3.5010    0.9661 C   0  0  1  0  0  0  0  0  0  0  0  0
    2.3816   -3.9692   -0.2766 C   0  0  2  0  0  0  0  0  0  0  0  0
    1.3058   -3.0031   -0.6793 C   0  0  0  0  0  0  0  0  0  0  0  0
    0.0798   -3.4119   -0.9938 C   0  0  0  0  0  0  0  0  0  0  0  0
   -0.9755   -2.5630   -1.5676 C   0  0  0  0  0  0  0  0  0  0  0  0
   -2.0641   -2.1121   -0.9477 C   0  0  0  0  0  0  0  0  0  0  0  0
   -2.3361   -2.3200    0.5166 C   0  0  1  0  0  0  0  0  0  0  0  0
   -2.6280   -0.9858    1.2156 C   0  0  2  0  0  0  0  0  0  0  0  0
   -3.7408   -0.2226    0.4856 C   0  0  2  0  0  0  0  0  0  0  0  0
   -3.3677    0.0203   -0.9845 C   0  0  2  0  0  0  0  0  0  0  0  0
   -3.0662   -1.2987   -1.6576 C   0  0  0  0  0  0  0  0  0  0  0  0
   -3.6249   -1.6636   -2.8024 C   0  0  0  0  0  0  0  0  0  0  0  0
   -2.2460    0.8797   -1.0992 O   0  0  0  0  0  0  0  0  0  0  0  0
   -1.4202   -0.2560    1.2500 O   0  0  0  0  0  0  0  0  0  0  0  0
    1.6135   -0.9782    1.7090 C   0  0  1  0  0  0  0  0  0  0  0  0
    2.9440    2.9876    2.1413 H   0  0  0  0  0  0  0  0  0  0  0  0
    2.4575    1.3682    2.6216 H   0  0  0  0  0  0  0  0  0  0  0  0
    4.1146    1.6751    2.1027 H   0  0  0  0  0  0  0  0  0  0  0  0
    3.2774    2.3374   -0.1403 H   0  0  0  0  0  0  0  0  0  0  0  0
    0.8134    1.3945   -0.6035 H   0  0  0  0  0  0  0  0  0  0  0  0
    0.6135    1.7574    1.1069 H   0  0  0  0  0  0  0  0  0  0  0  0
    1.6050    3.6852   -1.0241 H   0  0  0  0  0  0  0  0  0  0  0  0
    1.4746    4.0753    0.6838 H   0  0  0  0  0  0  0  0  0  0  0  0
   -0.3781    4.9408   -0.7156 H   0  0  0  0  0  0  0  0  0  0  0  0
   -0.8305    3.2939   -1.1546 H   0  0  0  0  0  0  0  0  0  0  0  0
   -2.3541    5.7549    0.3996 H   0  0  0  0  0  0  0  0  0  0  0  0
   -3.0355    4.3687   -0.4623 H   0  0  0  0  0  0  0  0  0  0  0  0
   -3.3697    4.5909    1.2585 H   0  0  0  0  0  0  0  0  0  0  0  0
   -1.5146    4.4438    2.9063 H   0  0  0  0  0  0  0  0  0  0  0  0
    0.0289    3.7175    2.4744 H   0  0  0  0  0  0  0  0  0  0  0  0
   -0.3367    5.3793    1.9736 H   0  0  0  0  0  0  0  0  0  0  0  0
   -2.1028    2.1563    0.2521 H   0  0  0  0  0  0  0  0  0  0  0  0
    4.2211    0.2148    0.3019 H   0  0  0  0  0  0  0  0  0  0  0  0
    4.1049    0.3570   -1.9943 H   0  0  0  0  0  0  0  0  0  0  0  0
    2.4610    0.9707   -1.9376 H   0  0  0  0  0  0  0  0  0  0  0  0
    3.3588   -1.9052   -2.0708 H   0  0  0  0  0  0  0  0  0  0  0  0
    1.9818   -1.1440   -2.8624 H   0  0  0  0  0  0  0  0  0  0  0  0
    0.7688   -0.9607   -0.7772 H   0  0  0  0  0  0  0  0  0  0  0  0
    4.3583   -2.0708   -0.0485 H   0  0  0  0  0  0  0  0  0  0  0  0
    4.1704   -1.7530    1.6736 H   0  0  0  0  0  0  0  0  0  0  0  0
    3.9824   -4.1661    1.1508 H   0  0  0  0  0  0  0  0  0  0  0  0
    2.4801   -3.5578    1.8363 H   0  0  0  0  0  0  0  0  0  0  0  0
    1.9534   -4.9601   -0.1105 H   0  0  0  0  0  0  0  0  0  0  0  0
    3.0929   -4.0542   -1.1051 H   0  0  0  0  0  0  0  0  0  0  0  0
   -0.1759   -4.4631   -0.9069 H   0  0  0  0  0  0  0  0  0  0  0  0
   -0.8411   -2.3127   -2.6149 H   0  0  0  0  0  0  0  0  0  0  0  0
   -3.2036   -2.9741    0.6389 H   0  0  0  0  0  0  0  0  0  0  0  0
   -1.4704   -2.7858    0.9879 H   0  0  0  0  0  0  0  0  0  0  0  0
   -2.9601   -1.1909    2.2480 H   0  0  0  0  0  0  0  0  0  0  0  0
   -3.9105    0.7370    0.9808 H   0  0  0  0  0  0  0  0  0  0  0  0
   -4.6642   -0.8017    0.5270 H   0  0  0  0  0  0  0  0  0  0  0  0
   -4.1840    0.5366   -1.5014 H   0  0  0  0  0  0  0  0  0  0  0  0
   -4.3450   -1.0412   -3.3064 H   0  0  0  0  0  0  0  0  0  0  0  0
   -3.3870   -2.6048   -3.2682 H   0  0  0  0  0  0  0  0  0  0  0  0
   -1.5124    0.4211   -0.6500 H   0  0  0  0  0  0  0  0  0  0  0  0
   -1.5844    0.6378    1.5929 H   0  0  0  0  0  0  0  0  0  0  0  0
    2.1979   -0.7863    2.6054 H   0  0  0  0  0  0  0  0  0  0  0  0
    0.8577   -0.2141    1.5925 H   0  0  0  0  0  0  0  0  0  0  0  0
    1.0870   -1.9203    1.8424 H   0  0  0  0  0  0  0  0  0  0  0  0
  1 33  1  6
  1 31  1  0
  1 32  1  0
  2 34  1  6
  2  1  1  0
  3  2  1  0
  3 36  1  1
  4  3  1  0
  4 38  1  1
  5  4  1  0
  5  6  1  0
  6  9  1  1
  6  8  1  0
  7  6  1  0
  7 43  1  1
  8 45  1  1
  8 44  1  0
 10 48  1  6
 10  2  1  0
 10 14  1  0
 11 10  1  0
 12 11  1  0
 12 13  1  0
 13 18  1  0
 14 13  1  6
 14 15  1  0
 14 30  1  0
 15 16  1  0
 15 55  1  1
 16 56  1  1
 16 57  1  0
 17 58  1  1
 17 16  1  0
 18 17  1  0
 19 60  1  0
 19 18  2  0
 20 19  1  0
 20 21  2  0
 21 22  1  0
 22 62  1  6
 22 63  1  0
 22 23  1  0
 23 29  1  0
 23 64  1  1
 24 66  1  6
 24 65  1  0
 24 23  1  0
 25 67  1  6
 25 24  1  0
 26 25  1  0
 26 21  1  0
 27 26  2  0
 28 25  1  0
 28 70  1  0
 29 71  1  0
 30 74  1  1
 30 72  1  0
 35  3  1  0
 37  4  1  0
  5 39  1  6
 40  5  1  0
 41  7  1  0
 42  7  1  0
 46  8  1  0
 47  9  1  0
 11 49  1  6
 50 11  1  0
 12 51  1  6
 52 12  1  0
 13 53  1  6
 54 15  1  0
 59 17  1  0
 61 20  1  0
 68 27  1  0
 69 27  1  0
 73 30  1  0
M  END
$$$$
