-92.47273710
     RDKit          3D

 74 76  0  0  1  0  0  0  0  0999 V2000
    4.1743    1.9756    1.9856 C   0  0  1  0  0  0  0  0  0  0  0  0
    3.4501    1.8715    0.6425 C   0  0  2  0  0  0  0  0  0  0  0  0
    1.9774    2.2990    0.7706 C   0  0  1  0  0  0  0  0  0  0  0  0
    1.6555    3.6365    0.1083 C   0  0  2  0  0  0  0  0  0  0  0  0
    0.1980    4.0496    0.3284 C   0  0  1  0  0  0  0  0  0  0  0  0
   -0.8929    3.0996   -0.2136 C   0  0  2  0  0  0  0  0  0  0  0  0
   -0.6558    2.7314   -1.6859 C   0  0  1  0  0  0  0  0  0  0  0  0
   -2.2481    3.8068   -0.0877 C   0  0  1  0  0  0  0  0  0  0  0  0
   -0.9002    1.9217    0.5761 O   0  0  0  0  0  0  0  0  0  0  0  0
    3.6735    0.5059   -0.0501 C   0  0  2  0  0  0  0  0  0  0  0  0
    3.3355    0.6422   -1.5551 C   0  0  2  0  0  0  0  0  0  0  0  0
    2.5335   -0.5926   -1.9560 C   0  0  2  0  0  0  0  0  0  0  0  0
    1.8325   -0.9858   -0.6531 C   0  0  2  0  0  0  0  0  0  0  0  0
    2.9164   -0.7744    0.4275 C   0  0  1  0  0  0  0  0  0  0  0  0
    3.9106   -1.9506    0.3991 C   0  0  1  0  0  0  0  0  0  0  0  0
    3.2273   -3.3087    0.5217 C   0  0  1  0  0  0  0  0  0  0  0  0
    2.2019   -3.4991   -0.5963 C   0  0  2  0  0  0  0  0  0  0  0  0
    1.2335   -2.3568   -0.6675 C   0  0  0  0  0  0  0  0  0  0  0  0
   -0.0890   -2.5674   -0.7526 C   0  0  0  0  0  0  0  0  0  0  0  0
   -1.0818   -1.5445   -0.9772 C   0  0  0  0  0  0  0  0  0  0  0  0
   -2.4051   -1.6357   -0.7745 C   0  0  0  0  0  0  0  0  0  0  0  0
   -3.1092   -2.8018   -0.1377 C   0  0  1  0  0  0  0  0  0  0  0  0
   -3.9260   -2.3268    1.0699 C   0  0  2  0  0  0  0  0  0  0  0  0
   -4.9256   -1.2474    0.6471 C   0  0  2  0  0  0  0  0  0  0  0  0
   -4.2173   -0.0555   -0.0048 C   0  0  2  0  0  0  0  0  0  0  0  0
   -3.2893   -0.5128   -1.1136 C   0  0  0  0  0  0  0  0  0  0  0  0
   -3.2486    0.1069   -2.2869 C   0  0  0  0  0  0  0  0  0  0  0  0
   -3.4874    0.6928    0.9502 O   0  0  0  0  0  0  0  0  0  0  0  0
   -3.0904   -1.7872    2.0825 O   0  0  0  0  0  0  0  0  0  0  0  0
    2.2685   -0.7212    1.8105 C   0  0  1  0  0  0  0  0  0  0  0  0
    4.1242    3.0001    2.3491 H   0  0  0  0  0  0  0  0  0  0  0  0
    3.7285    1.3297    2.7343 H   0  0  0  0  0  0  0  0  0  0  0  0
    5.2238    1.7060    1.8786 H   0  0  0  0  0  0  0  0  0  0  0  0
    3.9483    2.5910   -0.0214 H   0  0  0  0  0  0  0  0  0  0  0  0
    1.3229    1.5558    0.3287 H   0  0  0  0  0  0  0  0  0  0  0  0
    1.7068    2.3786    1.8246 H   0  0  0  0  0  0  0  0  0  0  0  0
    1.8681    3.5896   -0.9617 H   0  0  0  0  0  0  0  0  0  0  0  0
    2.2933    4.4186    0.5305 H   0  0  0  0  0  0  0  0  0  0  0  0
    0.0258    4.1487    1.4023 H   0  0  0  0  0  0  0  0  0  0  0  0
    0.0434    5.0292   -0.1295 H   0  0  0  0  0  0  0  0  0  0  0  0
   -0.5537    3.6275   -2.2925 H   0  0  0  0  0  0  0  0  0  0  0  0
    0.2434    2.1304   -1.7872 H   0  0  0  0  0  0  0  0  0  0  0  0
   -1.4974    2.1474   -2.0546 H   0  0  0  0  0  0  0  0  0  0  0  0
   -3.0480    3.1292   -0.3802 H   0  0  0  0  0  0  0  0  0  0  0  0
   -2.4171    4.1077    0.9438 H   0  0  0  0  0  0  0  0  0  0  0  0
   -2.2859    4.6886   -0.7224 H   0  0  0  0  0  0  0  0  0  0  0  0
   -1.8000    1.5550    0.5802 H   0  0  0  0  0  0  0  0  0  0  0  0
    4.7450    0.3042    0.0542 H   0  0  0  0  0  0  0  0  0  0  0  0
    4.2359    0.7556   -2.1593 H   0  0  0  0  0  0  0  0  0  0  0  0
    2.7242    1.5304   -1.7091 H   0  0  0  0  0  0  0  0  0  0  0  0
    3.1891   -1.3928   -2.2988 H   0  0  0  0  0  0  0  0  0  0  0  0
    1.8202   -0.3822   -2.7535 H   0  0  0  0  0  0  0  0  0  0  0  0
    1.0427   -0.2589   -0.4583 H   0  0  0  0  0  0  0  0  0  0  0  0
    4.4755   -1.9300   -0.5347 H   0  0  0  0  0  0  0  0  0  0  0  0
    4.6259   -1.8288    1.2164 H   0  0  0  0  0  0  0  0  0  0  0  0
    3.9783   -4.1005    0.4634 H   0  0  0  0  0  0  0  0  0  0  0  0
    2.7338   -3.3986    1.4903 H   0  0  0  0  0  0  0  0  0  0  0  0
    1.6676   -4.4425   -0.4623 H   0  0  0  0  0  0  0  0  0  0  0  0
    2.7352   -3.5586   -1.5510 H   0  0  0  0  0  0  0  0  0  0  0  0
   -0.4465   -3.5894   -0.7018 H   0  0  0  0  0  0  0  0  0  0  0  0
   -0.7225   -0.6062   -1.3738 H   0  0  0  0  0  0  0  0  0  0  0  0
   -3.7948   -3.2566   -0.8587 H   0  0  0  0  0  0  0  0  0  0  0  0
   -2.3969   -3.5643    0.1820 H   0  0  0  0  0  0  0  0  0  0  0  0
   -4.4816   -3.1848    1.4870 H   0  0  0  0  0  0  0  0  0  0  0  0
   -5.4664   -0.8954    1.5275 H   0  0  0  0  0  0  0  0  0  0  0  0
   -5.6394   -1.6789   -0.0553 H   0  0  0  0  0  0  0  0  0  0  0  0
   -4.9627    0.6376   -0.4148 H   0  0  0  0  0  0  0  0  0  0  0  0
   -3.8988    0.9358   -2.5128 H   0  0  0  0  0  0  0  0  0  0  0  0
   -2.5776   -0.2097   -3.0676 H   0  0  0  0  0  0  0  0  0  0  0  0
   -3.0952    0.0512    1.5664 H   0  0  0  0  0  0  0  0  0  0  0  0
   -2.3023   -2.3345    2.1660 H   0  0  0  0  0  0  0  0  0  0  0  0
    3.0231   -0.7388    2.5933 H   0  0  0  0  0  0  0  0  0  0  0  0
    1.6468    0.1558    1.9342 H   0  0  0  0  0  0  0  0  0  0  0  0
    1.6280   -1.5916    1.9392 H   0  0  0  0  0  0  0  0  0  0  0  0
  1 31  1  1
  1 32  1  0
  2 34  1  6
  2  3  1  0
  2  1  1  0
  3 36  1  1
  4  5  1  0
  4 38  1  1
  4  3  1  0
  5 39  1  1
  6  8  1  0
  6  5  1  0
  6  9  1  1
  7  6  1  0
  8 45  1  1
  9 47  1  0
 10 48  1  6
 10 14  1  0
 10  2  1  0
 11 10  1  0
 12 11  1  0
 12 13  1  0
 13 53  1  1
 14 13  1  6
 14 30  1  0
 15 14  1  0
 15 16  1  0
 15 55  1  1
 16 57  1  1
 17 58  1  1
 17 16  1  0
 18 13  1  0
 18 17  1  0
 19 60  1  0
 19 18  2  0
 20 21  2  0
 20 19  1  0
 21 22  1  0
 22 63  1  1
 22 23  1  0
 23 64  1  1
 23 29  1  0
 24 23  1  0
 24 65  1  1
 25 67  1  6
 25 24  1  0
 25 28  1  0
 26 21  1  0
 26 25  1  0
 27 26  2  0
 28 70  1  0
 29 71  1  0
 30 73  1  6
 30 74  1  0
 30 72  1  0
 33  1  1  0
 35  3  1  0
 37  4  1  0
 40  5  1  0
  7 41  1  6
 42  7  1  0
 43  7  1  0
 44  8  1  0
 46  8  1  0
 11 49  1  6
 50 11  1  0
 12 51  1  6
 52 12  1  0
 54 15  1  0
 56 16  1  0
 59 17  1  0
 61 20  1  0
 62 22  1  0
 66 24  1  0
 68 27  1  0
 69 27  1  0
M  END
$$$$
