-92.47097471
     RDKit          3D

 74 76  0  0  1  0  0  0  0  0999 V2000
    2.6966    1.7355    2.4798 C   0  0  1  0  0  0  0  0  0  0  0  0
    2.9262    1.6338    0.9690 C   0  0  2  0  0  0  0  0  0  0  0  0
    1.7210    2.1482    0.1756 C   0  0  1  0  0  0  0  0  0  0  0  0
    1.3913    3.6075    0.4887 C   0  0  2  0  0  0  0  0  0  0  0  0
    0.4311    4.2625   -0.5116 C   0  0  1  0  0  0  0  0  0  0  0  0
   -0.9506    3.5793   -0.6817 C   0  0  2  0  0  0  0  0  0  0  0  0
   -0.9481    2.6068   -1.8618 C   0  0  1  0  0  0  0  0  0  0  0  0
   -2.0235    4.6515   -0.9169 C   0  0  1  0  0  0  0  0  0  0  0  0
   -1.3057    2.8129    0.4653 O   0  0  0  0  0  0  0  0  0  0  0  0
    3.4414    0.2417    0.5274 C   0  0  2  0  0  0  0  0  0  0  0  0
    3.9556    0.2874   -0.9303 C   0  0  2  0  0  0  0  0  0  0  0  0
    2.9740   -0.5158   -1.8006 C   0  0  2  0  0  0  0  0  0  0  0  0
    1.8612   -0.9951   -0.8567 C   0  0  2  0  0  0  0  0  0  0  0  0
    2.5110   -1.0011    0.5449 C   0  0  1  0  0  0  0  0  0  0  0  0
    3.4207   -2.2386    0.6945 C   0  0  1  0  0  0  0  0  0  0  0  0
    2.7386   -3.5543    0.3336 C   0  0  1  0  0  0  0  0  0  0  0  0
    2.1888   -3.4929   -1.0937 C   0  0  2  0  0  0  0  0  0  0  0  0
    1.2535   -2.3258   -1.1831 C   0  0  0  0  0  0  0  0  0  0  0  0
   -0.0604   -2.5081   -1.3538 C   0  0  0  0  0  0  0  0  0  0  0  0
   -1.0683   -1.4658   -1.3553 C   0  0  0  0  0  0  0  0  0  0  0  0
   -2.2998   -1.5762   -0.8429 C   0  0  0  0  0  0  0  0  0  0  0  0
   -2.8375   -2.7858   -0.1354 C   0  0  1  0  0  0  0  0  0  0  0  0
   -3.2494   -2.4396    1.3110 C   0  0  2  0  0  0  0  0  0  0  0  0
   -4.2311   -1.2612    1.3103 C   0  0  2  0  0  0  0  0  0  0  0  0
   -3.6487   -0.0437    0.5831 C   0  0  2  0  0  0  0  0  0  0  0  0
   -3.2163   -0.4269   -0.8157 C   0  0  0  0  0  0  0  0  0  0  0  0
   -3.6008    0.2459   -1.8917 C   0  0  0  0  0  0  0  0  0  0  0  0
   -2.5388    0.4262    1.3323 O   0  0  0  0  0  0  0  0  0  0  0  0
   -2.1309   -2.1947    2.1213 O   0  0  0  0  0  0  0  0  0  0  0  0
    1.4415   -1.0352    1.6317 C   0  0  1  0  0  0  0  0  0  0  0  0
    1.7149    1.3739    2.7657 H   0  0  0  0  0  0  0  0  0  0  0  0
    3.4462    1.1599    3.0180 H   0  0  0  0  0  0  0  0  0  0  0  0
    2.7816    2.7713    2.8016 H   0  0  0  0  0  0  0  0  0  0  0  0
    3.7646    2.3088    0.7419 H   0  0  0  0  0  0  0  0  0  0  0  0
    1.9464    2.0663   -0.8885 H   0  0  0  0  0  0  0  0  0  0  0  0
    0.8419    1.5453    0.3944 H   0  0  0  0  0  0  0  0  0  0  0  0
    2.3141    4.1945    0.4824 H   0  0  0  0  0  0  0  0  0  0  0  0
    0.9713    3.6747    1.4938 H   0  0  0  0  0  0  0  0  0  0  0  0
    0.2740    5.2943   -0.1848 H   0  0  0  0  0  0  0  0  0  0  0  0
    0.9091    4.3027   -1.4915 H   0  0  0  0  0  0  0  0  0  0  0  0
   -0.8082    3.1498   -2.7921 H   0  0  0  0  0  0  0  0  0  0  0  0
   -0.1518    1.8787   -1.7544 H   0  0  0  0  0  0  0  0  0  0  0  0
   -1.8962    2.0745   -1.9000 H   0  0  0  0  0  0  0  0  0  0  0  0
   -1.7763    5.2489   -1.7899 H   0  0  0  0  0  0  0  0  0  0  0  0
   -2.9906    4.1799   -1.0766 H   0  0  0  0  0  0  0  0  0  0  0  0
   -2.1005    5.3126   -0.0544 H   0  0  0  0  0  0  0  0  0  0  0  0
   -1.3300    3.3965    1.2313 H   0  0  0  0  0  0  0  0  0  0  0  0
    4.2845    0.0354    1.1963 H   0  0  0  0  0  0  0  0  0  0  0  0
    4.9546   -0.1460   -0.9908 H   0  0  0  0  0  0  0  0  0  0  0  0
    4.0415    1.3159   -1.2797 H   0  0  0  0  0  0  0  0  0  0  0  0
    3.4808   -1.3595   -2.2666 H   0  0  0  0  0  0  0  0  0  0  0  0
    2.5587    0.0916   -2.6058 H   0  0  0  0  0  0  0  0  0  0  0  0
    1.0702   -0.2469   -0.8441 H   0  0  0  0  0  0  0  0  0  0  0  0
    4.2946   -2.1238    0.0516 H   0  0  0  0  0  0  0  0  0  0  0  0
    3.7759   -2.2883    1.7270 H   0  0  0  0  0  0  0  0  0  0  0  0
    3.4597   -4.3709    0.4197 H   0  0  0  0  0  0  0  0  0  0  0  0
    1.9199   -3.7618    1.0241 H   0  0  0  0  0  0  0  0  0  0  0  0
    1.6695   -4.4209   -1.3391 H   0  0  0  0  0  0  0  0  0  0  0  0
    3.0209   -3.3795   -1.7928 H   0  0  0  0  0  0  0  0  0  0  0  0
   -0.4233   -3.5211   -1.4784 H   0  0  0  0  0  0  0  0  0  0  0  0
   -0.7855   -0.5100   -1.7766 H   0  0  0  0  0  0  0  0  0  0  0  0
   -3.7217   -3.1521   -0.6658 H   0  0  0  0  0  0  0  0  0  0  0  0
   -2.0931   -3.5792   -0.0986 H   0  0  0  0  0  0  0  0  0  0  0  0
   -3.7420   -3.3183    1.7490 H   0  0  0  0  0  0  0  0  0  0  0  0
   -4.4495   -0.9804    2.3422 H   0  0  0  0  0  0  0  0  0  0  0  0
   -5.1598   -1.5554    0.8191 H   0  0  0  0  0  0  0  0  0  0  0  0
   -4.4159    0.7472    0.5296 H   0  0  0  0  0  0  0  0  0  0  0  0
   -4.2769    1.0837   -1.8270 H   0  0  0  0  0  0  0  0  0  0  0  0
   -3.2775   -0.0401   -2.8786 H   0  0  0  0  0  0  0  0  0  0  0  0
   -2.1320    1.1796    0.8731 H   0  0  0  0  0  0  0  0  0  0  0  0
   -1.8571   -1.2789    1.9510 H   0  0  0  0  0  0  0  0  0  0  0  0
    1.8933   -1.0280    2.6202 H   0  0  0  0  0  0  0  0  0  0  0  0
    0.7581   -0.1970    1.5484 H   0  0  0  0  0  0  0  0  0  0  0  0
    0.8458   -1.9395    1.5352 H   0  0  0  0  0  0  0  0  0  0  0  0
  1 31  1  6
  1 33  1  0
  1 32  1  0
  2 34  1  6
  2  1  1  0
  3 36  1  6
  3  4  1  0
  3  2  1  0
  4 38  1  1
  5 39  1  1
  5  4  1  0
  6  5  1  0
  6  9  1  1
  7 42  1  1
  7  6  1  0
  8  6  1  0
  8 46  1  1
  9 47  1  0
 10 14  1  0
 10  2  1  0
 10 48  1  1
 11 10  1  0
 12 11  1  0
 12 13  1  0
 13 53  1  1
 14 13  1  6
 14 15  1  0
 14 30  1  0
 15 55  1  1
 16 56  1  6
 16 15  1  0
 16 57  1  0
 17 16  1  0
 18 17  1  0
 18 13  1  0
 19 18  2  0
 20 19  1  0
 20 21  2  0
 21 26  1  0
 21 22  1  0
 22 63  1  1
 22 23  1  0
 23 64  1  1
 23 29  1  0
 24 23  1  0
 24 65  1  1
 25 67  1  6
 25 24  1  0
 25 28  1  0
 26 25  1  0
 27 68  1  0
 27 26  2  0
 30 72  1  1
 35  3  1  0
 37  4  1  0
 40  5  1  0
 41  7  1  0
 43  7  1  0
 44  8  1  0
 45  8  1  0
 11 49  1  1
 50 11  1  0
 12 51  1  6
 52 12  1  0
 54 15  1  0
 17 58  1  6
 59 17  1  0
 60 19  1  0
 61 20  1  0
 62 22  1  0
 66 24  1  0
 69 27  1  0
 70 28  1  0
 71 29  1  0
 73 30  1  0
 74 30  1  0
M  END
$$$$
