 energy: -46.429447332603 gnorm: 0.000040337525 xtb: 6.5.1 (9af7eec)
     RDKit          3D

 28 27  0  0  0  0  0  0  0  0999 V2000
   -0.9066    0.8852   -0.7673 N   0  0  0  0  0  0  0  0  0  0  0  0
   -0.6479    1.6619   -1.3559 H   0  0  0  0  0  0  0  0  0  0  0  0
   -0.2582   -0.3997   -0.9843 C   0  0  1  0  0  0  0  0  0  0  0  0
   -1.0270   -1.1631   -0.7970 H   0  0  0  0  0  0  0  0  0  0  0  0
    0.2039   -0.5523   -2.4381 C   0  0  2  0  0  0  0  0  0  0  0  0
    0.8287   -0.5902    0.0956 C   0  0  0  0  0  0  0  0  0  0  0  0
   -0.6273   -0.2343   -3.0722 H   0  0  0  0  0  0  0  0  0  0  0  0
    0.3820   -1.6128   -2.6251 H   0  0  0  0  0  0  0  0  0  0  0  0
    1.4665    0.2192   -2.8538 C   0  0  2  0  0  0  0  0  0  0  0  0
    2.0174   -0.3463   -0.0816 O   0  0  0  0  0  0  0  0  0  0  0  0
    1.5482    0.1656   -3.9404 H   0  0  0  0  0  0  0  0  0  0  0  0
    2.3483   -0.2383   -2.4063 H   0  0  0  0  0  0  0  0  0  0  0  0
    1.3823    1.6856   -2.4607 C   0  0  0  0  0  0  0  0  0  0  0  0
    1.9885    2.0130   -1.3250 O   0  0  0  0  0  0  0  0  0  0  0  0
    0.7790    2.5013   -3.1103 O   0  0  0  0  0  0  0  0  0  0  0  0
   -1.8591    1.0479    0.1748 C   0  0  0  0  0  0  0  0  0  0  0  0
   -2.4629    2.4277    0.2073 C   0  0  2  0  0  0  0  0  0  0  0  0
   -2.1862    0.1429    0.9250 O   0  0  0  0  0  0  0  0  0  0  0  0
   -3.2118    2.4770    0.9922 H   0  0  0  0  0  0  0  0  0  0  0  0
   -2.9264    2.6546   -0.7502 H   0  0  0  0  0  0  0  0  0  0  0  0
   -1.6871    3.1661    0.3981 H   0  0  0  0  0  0  0  0  0  0  0  0
    0.3304   -1.0289    1.2506 N   0  0  0  0  0  0  0  0  0  0  0  0
    1.1374   -1.1945    2.4358 C   0  0  1  0  0  0  0  0  0  0  0  0
   -0.6817   -1.0297    1.3622 H   0  0  0  0  0  0  0  0  0  0  0  0
    2.1840   -1.0891    2.1552 H   0  0  0  0  0  0  0  0  0  0  0  0
    0.8848   -0.4393    3.1818 H   0  0  0  0  0  0  0  0  0  0  0  0
    0.9700   -2.1844    2.8604 H   0  0  0  0  0  0  0  0  0  0  0  0
    2.2786    1.2060   -0.8333 H   0  0  0  0  0  0  0  0  0  0  0  0
  1  2  1  0
  1  3  1  0
  1 16  1  0
  3  6  1  0
  3  5  1  0
  3  4  1  1
  5  7  1  6
  5  8  1  0
  5  9  1  0
  6 10  1  0
  6 22  1  0
  9 13  1  0
  9 12  1  1
  9 11  1  0
 13 15  1  0
 13 14  1  0
 14 28  1  0
 16 17  1  0
 16 18  1  0
 17 20  1  6
 17 21  1  0
 17 19  1  0
 22 23  1  0
 22 24  1  0
 23 27  1  1
 23 26  1  0
 23 25  1  0
M  END
$$$$
