 energy: -46.429184730455 gnorm: 0.000027236571 xtb: 6.5.1 (9af7eec)
     RDKit          3D

 28 27  0  0  0  0  0  0  0  0999 V2000
   -0.4115    1.0200    0.9207 N   0  0  0  0  0  0  0  0  0  0  0  0
    0.2054    1.7624    1.2088 H   0  0  0  0  0  0  0  0  0  0  0  0
    0.1970   -0.2674    0.6412 C   0  0  1  0  0  0  0  0  0  0  0  0
   -0.4635   -0.7778   -0.0713 H   0  0  0  0  0  0  0  0  0  0  0  0
    1.5849   -0.0789    0.0405 C   0  0  2  0  0  0  0  0  0  0  0  0
    0.2542   -1.1164    1.9313 C   0  0  0  0  0  0  0  0  0  0  0  0
    2.0416   -1.0613   -0.0777 H   0  0  0  0  0  0  0  0  0  0  0  0
    2.2047    0.4908    0.7345 H   0  0  0  0  0  0  0  0  0  0  0  0
    1.5279    0.6242   -1.3186 C   0  0  2  0  0  0  0  0  0  0  0  0
    1.2922   -1.3896    2.4975 O   0  0  0  0  0  0  0  0  0  0  0  0
    0.8665    0.0905   -2.0019 H   0  0  0  0  0  0  0  0  0  0  0  0
    2.5325    0.6499   -1.7456 H   0  0  0  0  0  0  0  0  0  0  0  0
    1.0511    2.0498   -1.2235 C   0  0  0  0  0  0  0  0  0  0  0  0
    1.7901    2.7779   -0.3661 O   0  0  0  0  0  0  0  0  0  0  0  0
    0.1415    2.5334   -1.8409 O   0  0  0  0  0  0  0  0  0  0  0  0
   -1.7459    1.2217    0.8602 C   0  0  0  0  0  0  0  0  0  0  0  0
   -2.1607    2.6657    0.9875 C   0  0  2  0  0  0  0  0  0  0  0  0
   -2.5269    0.3025    0.6916 O   0  0  0  0  0  0  0  0  0  0  0  0
   -3.2368    2.7242    1.1195 H   0  0  0  0  0  0  0  0  0  0  0  0
   -1.8907    3.1816    0.0668 H   0  0  0  0  0  0  0  0  0  0  0  0
   -1.6601    3.1458    1.8248 H   0  0  0  0  0  0  0  0  0  0  0  0
   -0.9665   -1.4957    2.3372 N   0  0  0  0  0  0  0  0  0  0  0  0
   -1.1863   -2.2582    3.5412 C   0  0  1  0  0  0  0  0  0  0  0  0
   -1.7748   -1.1789    1.8108 H   0  0  0  0  0  0  0  0  0  0  0  0
   -0.2132   -2.4875    3.9727 H   0  0  0  0  0  0  0  0  0  0  0  0
   -1.7762   -1.6851    4.2592 H   0  0  0  0  0  0  0  0  0  0  0  0
   -1.7107   -3.1869    3.3116 H   0  0  0  0  0  0  0  0  0  0  0  0
    1.5023    3.7041   -0.3778 H   0  0  0  0  0  0  0  0  0  0  0  0
  1  2  1  0
  1  3  1  0
  1 16  1  0
  3  6  1  0
  3  5  1  0
  3  4  1  6
  5  7  1  6
  5  8  1  0
  5  9  1  0
  6 10  1  0
  6 22  1  0
  9 13  1  0
  9 12  1  6
  9 11  1  0
 13 15  1  0
 13 14  1  0
 14 28  1  0
 16 17  1  0
 16 18  1  0
 17 20  1  6
 17 21  1  0
 17 19  1  0
 22 23  1  0
 22 24  1  0
 23 27  1  6
 23 26  1  0
 23 25  1  0
M  END
$$$$
