Coordinates from ORCA-job xap
     RDKit          3D

 29 28  0  0  0  0  0  0  0  0999 V2000
   -1.2800   -0.9900   -0.6050 N   0  0  0  0  0  0  0  0  0  0  0  0
   -0.0580   -0.3010   -0.2280 C   0  0  2  0  0  0  0  0  0  0  0  0
   -0.2980    1.1650    0.1180 C   0  0  1  0  0  0  0  0  0  0  0  0
    0.4980    1.7870    0.8240 O   0  0  0  0  0  0  0  0  0  0  0  0
    0.9420   -0.4210   -1.3820 C   0  0  1  0  0  0  0  0  0  0  0  0
    2.3080    0.1980   -1.0880 C   0  0  1  0  0  0  0  0  0  0  0  0
    2.9670   -0.5210    0.0760 C   0  0  0  0  0  0  0  0  0  0  0  0
    3.5120   -1.6070   -0.0700 O   0  0  0  0  0  0  0  0  0  0  0  0
   -1.2420   -1.5810   -1.4210 H   0  0  0  0  0  0  0  0  0  0  0  0
    0.3520   -0.7520    0.6760 H   0  0  0  0  0  0  0  0  0  0  0  0
    1.0860   -1.4830   -1.5940 H   0  0  0  0  0  0  0  0  0  0  0  0
    0.5080    0.0460   -2.2690 H   0  0  0  0  0  0  0  0  0  0  0  0
    2.9490    0.0550   -1.9550 H   0  0  0  0  0  0  0  0  0  0  0  0
    2.2120    1.2640   -0.8910 H   0  0  0  0  0  0  0  0  0  0  0  0
   -2.2000   -1.3070    0.3670 C   0  0  0  0  0  0  0  0  0  0  0  0
   -2.1420   -0.8110    1.4810 O   0  0  0  0  0  0  0  0  0  0  0  0
   -1.3700    1.7330   -0.4660 N   0  0  0  0  0  0  0  0  0  0  0  0
   -2.0260    1.1050   -0.8990 H   0  0  0  0  0  0  0  0  0  0  0  0
   -1.7590    3.0950   -0.1690 C   0  0  1  0  0  0  0  0  0  0  0  0
   -2.2540    3.5310   -1.0320 H   0  0  0  0  0  0  0  0  0  0  0  0
   -2.4260    3.1410    0.6920 H   0  0  0  0  0  0  0  0  0  0  0  0
   -0.8610    3.6610    0.0590 H   0  0  0  0  0  0  0  0  0  0  0  0
   -3.2700   -2.2870   -0.0470 C   0  0  2  0  0  0  0  0  0  0  0  0
   -3.0210   -3.2640    0.3630 H   0  0  0  0  0  0  0  0  0  0  0  0
   -3.3690   -2.3730   -1.1260 H   0  0  0  0  0  0  0  0  0  0  0  0
   -4.2160   -1.9750    0.3850 H   0  0  0  0  0  0  0  0  0  0  0  0
    2.8820    0.1320    1.2640 N   0  0  0  0  0  0  0  0  0  0  0  0
    3.1790   -0.3730    2.0810 H   0  0  0  0  0  0  0  0  0  0  0  0
    2.1920    0.8670    1.3610 H   0  0  0  0  0  0  0  0  0  0  0  0
  1  9  1  0
  1  2  1  0
  1 15  1  0
  2  5  1  0
  2  3  1  0
  2 10  1  1
  3 17  1  0
  3  4  1  6
  5 12  1  6
  5 11  1  0
  5  6  1  0
  6 13  1  6
  6 14  1  0
  6  7  1  0
  7  8  1  0
  7 27  1  0
 15 23  1  0
 15 16  1  0
 17 18  1  0
 17 19  1  0
 19 20  1  6
 19 22  1  0
 19 21  1  0
 23 25  1  6
 23 24  1  0
 23 26  1  0
 27 29  1  0
 27 28  1  0
M  END
$$$$
