-61.76815997
     RDKit          3D

 39 38  0  0  1  0  0  0  0  0999 V2000
   -2.9181    0.1174   -1.5277 H   0  0  0  0  0  0  0  0  0  0  0  0
   -1.9325    0.5696   -1.5558 C   0  0  1  0  0  0  0  0  0  0  0  0
   -1.8900    1.3187   -2.3427 H   0  0  0  0  0  0  0  0  0  0  0  0
   -1.2026   -0.2049   -1.7897 H   0  0  0  0  0  0  0  0  0  0  0  0
   -1.5665    1.2266   -0.2564 C   0  0  0  0  0  0  0  0  0  0  0  0
   -0.8880    2.2396   -0.1957 O   0  0  0  0  0  0  0  0  0  0  0  0
   -1.9453    0.6337    0.9034 N   0  0  0  0  0  0  0  0  0  0  0  0
   -1.7478    1.2015    1.7185 H   0  0  0  0  0  0  0  0  0  0  0  0
   -2.7892   -0.5235    1.1527 C   0  0  1  0  0  0  0  0  0  0  0  0
   -2.5248   -0.8895    2.1542 H   0  0  0  0  0  0  0  0  0  0  0  0
   -4.2708   -0.1457    1.1432 C   0  0  1  0  0  0  0  0  0  0  0  0
   -4.4674    0.6218    1.8881 H   0  0  0  0  0  0  0  0  0  0  0  0
   -4.5621    0.2281    0.1658 H   0  0  0  0  0  0  0  0  0  0  0  0
   -4.8716   -1.0231    1.3620 H   0  0  0  0  0  0  0  0  0  0  0  0
   -2.5325   -1.7029    0.1918 C   0  0  0  0  0  0  0  0  0  0  0  0
   -3.4365   -2.2135   -0.4347 O   0  0  0  0  0  0  0  0  0  0  0  0
   -1.2844   -2.2036    0.1584 N   0  0  0  0  0  0  0  0  0  0  0  0
   -1.1357   -2.9555   -0.5113 H   0  0  0  0  0  0  0  0  0  0  0  0
   -0.0457   -1.6840    0.6817 C   0  0  1  0  0  0  0  0  0  0  0  0
   -0.1721   -0.6804    1.0768 H   0  0  0  0  0  0  0  0  0  0  0  0
    0.3213   -2.3421    1.4819 H   0  0  0  0  0  0  0  0  0  0  0  0
    0.9914   -1.7285   -0.4549 C   0  0  0  0  0  0  0  0  0  0  0  0
    0.9324   -2.6125   -1.2863 O   0  0  0  0  0  0  0  0  0  0  0  0
    1.9367   -0.7822   -0.4756 N   0  0  0  0  0  0  0  0  0  0  0  0
    2.6394   -0.8566   -1.2112 H   0  0  0  0  0  0  0  0  0  0  0  0
    2.1065    0.4059    0.3263 C   0  0  1  0  0  0  0  0  0  0  0  0
    1.1472    0.9031    0.4929 H   0  0  0  0  0  0  0  0  0  0  0  0
    2.7958    0.0841    1.6588 C   0  0  1  0  0  0  0  0  0  0  0  0
    2.1807   -0.5858    2.2544 H   0  0  0  0  0  0  0  0  0  0  0  0
    3.7488   -0.4014    1.4630 H   0  0  0  0  0  0  0  0  0  0  0  0
    2.9783    0.9910    2.2280 H   0  0  0  0  0  0  0  0  0  0  0  0
    3.0245    1.3291   -0.4925 C   0  0  0  0  0  0  0  0  0  0  0  0
    3.7889    0.8644   -1.3171 O   0  0  0  0  0  0  0  0  0  0  0  0
    2.9711    2.6417   -0.2305 N   0  0  0  0  0  0  0  0  0  0  0  0
    3.5887    3.2014   -0.8015 H   0  0  0  0  0  0  0  0  0  0  0  0
    2.0289    3.3472    0.6100 C   0  0  1  0  0  0  0  0  0  0  0  0
    0.9990    3.1471    0.3066 H   0  0  0  0  0  0  0  0  0  0  0  0
    2.1535    3.0679    1.6579 H   0  0  0  0  0  0  0  0  0  0  0  0
    2.2142    4.4135    0.5169 H   0  0  0  0  0  0  0  0  0  0  0  0
  2  1  1  1
  2  5  1  0
  3  2  1  0
  4  2  1  0
  5  6  2  0
  5  7  1  0
  7  9  1  0
  7  8  1  0
  9 10  1  1
 11  9  1  0
 11 14  1  1
 11 12  1  0
 13 11  1  0
 15  9  1  0
 16 15  2  0
 17 15  1  0
 17 19  1  0
 18 17  1  0
 19 20  1  1
 19 21  1  0
 22 19  1  0
 23 22  2  0
 24 22  1  0
 24 26  1  0
 25 24  1  0
 26 27  1  1
 26 28  1  0
 28 31  1  1
 28 29  1  0
 30 28  1  0
 32 34  1  0
 32 26  1  0
 33 32  2  0
 34 36  1  0
 35 34  1  0
 36 38  1  1
 37 36  1  0
 39 36  1  0
M  END
$$$$
