-61.76740064
     RDKit          3D

 39 38  0  0  1  0  0  0  0  0999 V2000
   -2.6910    1.0352    1.7341 H   0  0  0  0  0  0  0  0  0  0  0  0
   -2.7049    1.8804    1.0499 C   0  0  1  0  0  0  0  0  0  0  0  0
   -2.4716    2.7932    1.5907 H   0  0  0  0  0  0  0  0  0  0  0  0
   -3.7029    1.9677    0.6243 H   0  0  0  0  0  0  0  0  0  0  0  0
   -1.6906    1.6930   -0.0497 C   0  0  0  0  0  0  0  0  0  0  0  0
   -0.8476    2.5297   -0.3280 O   0  0  0  0  0  0  0  0  0  0  0  0
   -1.7439    0.5253   -0.7239 N   0  0  0  0  0  0  0  0  0  0  0  0
   -1.0492    0.3952   -1.4474 H   0  0  0  0  0  0  0  0  0  0  0  0
   -2.6597   -0.5712   -0.5405 C   0  0  1  0  0  0  0  0  0  0  0  0
   -3.6450   -0.1743   -0.2681 H   0  0  0  0  0  0  0  0  0  0  0  0
   -2.7953   -1.3450   -1.8546 C   0  0  1  0  0  0  0  0  0  0  0  0
   -3.5191   -2.1449   -1.7287 H   0  0  0  0  0  0  0  0  0  0  0  0
   -3.1320   -0.6805   -2.6471 H   0  0  0  0  0  0  0  0  0  0  0  0
   -1.8364   -1.7807   -2.1259 H   0  0  0  0  0  0  0  0  0  0  0  0
   -2.3212   -1.5976    0.5509 C   0  0  0  0  0  0  0  0  0  0  0  0
   -3.1998   -2.3512    0.9232 O   0  0  0  0  0  0  0  0  0  0  0  0
   -1.0917   -1.6955    1.1046 N   0  0  0  0  0  0  0  0  0  0  0  0
   -1.0323   -2.5028    1.7122 H   0  0  0  0  0  0  0  0  0  0  0  0
    0.1500   -0.9960    0.8865 C   0  0  1  0  0  0  0  0  0  0  0  0
   -0.0039    0.0854    0.9053 H   0  0  0  0  0  0  0  0  0  0  0  0
    0.8199   -1.2365    1.7153 H   0  0  0  0  0  0  0  0  0  0  0  0
    0.8265   -1.3756   -0.4312 C   0  0  0  0  0  0  0  0  0  0  0  0
    0.2615   -1.9942   -1.3107 O   0  0  0  0  0  0  0  0  0  0  0  0
    2.1003   -0.9562   -0.5854 N   0  0  0  0  0  0  0  0  0  0  0  0
    2.5475   -1.2711   -1.4374 H   0  0  0  0  0  0  0  0  0  0  0  0
    2.9362   -0.2459    0.3621 C   0  0  1  0  0  0  0  0  0  0  0  0
    3.0473   -0.8494    1.2756 H   0  0  0  0  0  0  0  0  0  0  0  0
    4.3238   -0.0151   -0.2284 C   0  0  1  0  0  0  0  0  0  0  0  0
    4.7949   -0.9682   -0.4611 H   0  0  0  0  0  0  0  0  0  0  0  0
    4.2750    0.5849   -1.1326 H   0  0  0  0  0  0  0  0  0  0  0  0
    4.9418    0.5053    0.4984 H   0  0  0  0  0  0  0  0  0  0  0  0
    2.3146    1.0826    0.8431 C   0  0  0  0  0  0  0  0  0  0  0  0
    2.1938    1.2803    2.0388 O   0  0  0  0  0  0  0  0  0  0  0  0
    1.9330    1.9934   -0.0590 N   0  0  0  0  0  0  0  0  0  0  0  0
    1.4635    2.7970    0.3410 H   0  0  0  0  0  0  0  0  0  0  0  0
    1.9546    1.9794   -1.5005 C   0  0  1  0  0  0  0  0  0  0  0  0
    2.7936    2.5715   -1.8779 H   0  0  0  0  0  0  0  0  0  0  0  0
    2.0253    0.9675   -1.8885 H   0  0  0  0  0  0  0  0  0  0  0  0
    1.0253    2.4272   -1.8514 H   0  0  0  0  0  0  0  0  0  0  0  0
  2  3  1  1
  2  1  1  0
  4  2  1  0
  5  2  1  0
  6  5  2  0
  7  9  1  0
  7  5  1  0
  8  7  1  0
  9 10  1  1
  9 15  1  0
 11 12  1  1
 11  9  1  0
 13 11  1  0
 14 11  1  0
 15 16  2  0
 15 17  1  0
 17 18  1  0
 19 20  1  6
 19 17  1  0
 19 21  1  0
 22 19  1  0
 23 22  2  0
 24 22  1  0
 24 26  1  0
 25 24  1  0
 26 32  1  0
 26 27  1  1
 28 26  1  0
 28 31  1  1
 29 28  1  0
 30 28  1  0
 32 33  2  0
 34 35  1  0
 34 32  1  0
 36 34  1  0
 36 37  1  6
 38 36  1  0
 39 36  1  0
M  END
$$$$
