-61.76726825
     RDKit          3D

 39 38  0  0  1  0  0  0  0  0999 V2000
   -3.9203    1.3588    0.9494 H   0  0  0  0  0  0  0  0  0  0  0  0
   -2.9764    1.2101    1.4700 C   0  0  1  0  0  0  0  0  0  0  0  0
   -2.9190    0.1686    1.7762 H   0  0  0  0  0  0  0  0  0  0  0  0
   -2.9453    1.8471    2.3494 H   0  0  0  0  0  0  0  0  0  0  0  0
   -1.8264    1.5697    0.5670 C   0  0  0  0  0  0  0  0  0  0  0  0
   -1.0135    2.4373    0.8394 O   0  0  0  0  0  0  0  0  0  0  0  0
   -1.7207    0.8777   -0.5895 N   0  0  0  0  0  0  0  0  0  0  0  0
   -0.9846    1.1845   -1.2205 H   0  0  0  0  0  0  0  0  0  0  0  0
   -2.4973   -0.2776   -0.9822 C   0  0  1  0  0  0  0  0  0  0  0  0
   -3.5674   -0.0313   -0.9333 H   0  0  0  0  0  0  0  0  0  0  0  0
   -2.1608   -0.6760   -2.4171 C   0  0  1  0  0  0  0  0  0  0  0  0
   -1.1038   -0.9045   -2.5269 H   0  0  0  0  0  0  0  0  0  0  0  0
   -2.7401   -1.5514   -2.6988 H   0  0  0  0  0  0  0  0  0  0  0  0
   -2.4084    0.1395   -3.0927 H   0  0  0  0  0  0  0  0  0  0  0  0
   -2.3404   -1.4883   -0.0365 C   0  0  0  0  0  0  0  0  0  0  0  0
   -3.3277   -2.0786    0.3562 O   0  0  0  0  0  0  0  0  0  0  0  0
   -1.1077   -1.9027    0.3146 N   0  0  0  0  0  0  0  0  0  0  0  0
   -1.0878   -2.6522    0.9981 H   0  0  0  0  0  0  0  0  0  0  0  0
    0.1842   -1.3585   -0.0093 C   0  0  1  0  0  0  0  0  0  0  0  0
    0.7667   -2.1068   -0.5675 H   0  0  0  0  0  0  0  0  0  0  0  0
    0.0681   -0.4737   -0.6189 H   0  0  0  0  0  0  0  0  0  0  0  0
    0.9640   -1.0545    1.2729 C   0  0  0  0  0  0  0  0  0  0  0  0
    0.8906   -1.7815    2.2415 O   0  0  0  0  0  0  0  0  0  0  0  0
    1.8022    0.0070    1.2491 N   0  0  0  0  0  0  0  0  0  0  0  0
    2.2395    0.1896    2.1449 H   0  0  0  0  0  0  0  0  0  0  0  0
    1.8098    1.1402    0.3328 C   0  0  1  0  0  0  0  0  0  0  0  0
    0.8523    1.6815    0.3997 H   0  0  0  0  0  0  0  0  0  0  0  0
    2.9072    2.1246    0.7329 C   0  0  1  0  0  0  0  0  0  0  0  0
    2.6868    2.5328    1.7164 H   0  0  0  0  0  0  0  0  0  0  0  0
    3.8877    1.6569    0.7546 H   0  0  0  0  0  0  0  0  0  0  0  0
    2.9257    2.9482    0.0240 H   0  0  0  0  0  0  0  0  0  0  0  0
    1.9638    0.7362   -1.1364 C   0  0  0  0  0  0  0  0  0  0  0  0
    1.1378    1.0982   -1.9606 O   0  0  0  0  0  0  0  0  0  0  0  0
    3.0054   -0.0216   -1.5147 N   0  0  0  0  0  0  0  0  0  0  0  0
    3.0533   -0.1766   -2.5140 H   0  0  0  0  0  0  0  0  0  0  0  0
    4.0827   -0.5828   -0.7374 C   0  0  1  0  0  0  0  0  0  0  0  0
    4.3246   -1.5715   -1.1278 H   0  0  0  0  0  0  0  0  0  0  0  0
    4.9802    0.0395   -0.7992 H   0  0  0  0  0  0  0  0  0  0  0  0
    3.7832   -0.6868    0.3019 H   0  0  0  0  0  0  0  0  0  0  0  0
  2  1  1  6
  2  3  1  0
  2  4  1  0
  5  6  2  0
  5  2  1  0
  7  5  1  0
  8  7  1  0
  9 10  1  6
  9  7  1  0
  9 15  1  0
 11  9  1  0
 11 12  1  1
 13 11  1  0
 14 11  1  0
 15 17  1  0
 15 16  2  0
 17 18  1  0
 19 17  1  0
 19 22  1  0
 19 20  1  6
 21 19  1  0
 22 23  2  0
 24 22  1  0
 24 25  1  0
 26 27  1  6
 26 28  1  0
 26 24  1  0
 28 30  1  1
 28 29  1  0
 31 28  1  0
 32 26  1  0
 33 32  2  0
 34 32  1  0
 34 36  1  0
 35 34  1  0
 36 39  1  1
 37 36  1  0
 38 36  1  0
M  END
$$$$
