-61.76706746
     RDKit          3D

 39 38  0  0  1  0  0  0  0  0999 V2000
   -3.5199    1.9337    0.6418 H   0  0  0  0  0  0  0  0  0  0  0  0
   -2.7226    1.6546   -0.0453 C   0  0  1  0  0  0  0  0  0  0  0  0
   -2.4966    2.5172   -0.6675 H   0  0  0  0  0  0  0  0  0  0  0  0
   -3.0643    0.8300   -0.6620 H   0  0  0  0  0  0  0  0  0  0  0  0
   -1.5025    1.2978    0.7585 C   0  0  0  0  0  0  0  0  0  0  0  0
   -0.6154    2.1077    0.9963 O   0  0  0  0  0  0  0  0  0  0  0  0
   -1.3978    0.0413    1.2373 N   0  0  0  0  0  0  0  0  0  0  0  0
   -0.5847   -0.1068    1.8191 H   0  0  0  0  0  0  0  0  0  0  0  0
   -2.1790   -1.1409    0.9295 C   0  0  1  0  0  0  0  0  0  0  0  0
   -1.6104   -1.9986    1.3090 H   0  0  0  0  0  0  0  0  0  0  0  0
   -3.5458   -1.1322    1.6141 C   0  0  1  0  0  0  0  0  0  0  0  0
   -4.0408   -2.0802    1.4282 H   0  0  0  0  0  0  0  0  0  0  0  0
   -3.4223   -0.9938    2.6851 H   0  0  0  0  0  0  0  0  0  0  0  0
   -4.1765   -0.3410    1.2217 H   0  0  0  0  0  0  0  0  0  0  0  0
   -2.3312   -1.4197   -0.5748 C   0  0  0  0  0  0  0  0  0  0  0  0
   -3.3771   -1.8317   -1.0345 O   0  0  0  0  0  0  0  0  0  0  0  0
   -1.2633   -1.2358   -1.3834 N   0  0  0  0  0  0  0  0  0  0  0  0
   -1.4321   -1.5689   -2.3226 H   0  0  0  0  0  0  0  0  0  0  0  0
    0.0682   -0.7528   -1.1042 C   0  0  1  0  0  0  0  0  0  0  0  0
    0.6792   -0.9070   -1.9975 H   0  0  0  0  0  0  0  0  0  0  0  0
    0.0569    0.3201   -0.8927 H   0  0  0  0  0  0  0  0  0  0  0  0
    0.7661   -1.5235    0.0162 C   0  0  0  0  0  0  0  0  0  0  0  0
    0.4605   -2.6634    0.3027 O   0  0  0  0  0  0  0  0  0  0  0  0
    1.7365   -0.8716    0.6882 N   0  0  0  0  0  0  0  0  0  0  0  0
    2.2758   -1.4616    1.3075 H   0  0  0  0  0  0  0  0  0  0  0  0
    2.1891    0.5000    0.5532 C   0  0  1  0  0  0  0  0  0  0  0  0
    1.3786    1.1779    0.8486 H   0  0  0  0  0  0  0  0  0  0  0  0
    3.3901    0.7108    1.4737 C   0  0  1  0  0  0  0  0  0  0  0  0
    4.2062    0.0567    1.1732 H   0  0  0  0  0  0  0  0  0  0  0  0
    3.7334    1.7398    1.4201 H   0  0  0  0  0  0  0  0  0  0  0  0
    3.1181    0.4936    2.5043 H   0  0  0  0  0  0  0  0  0  0  0  0
    2.6182    0.7954   -0.8890 C   0  0  0  0  0  0  0  0  0  0  0  0
    3.0171   -0.0792   -1.6333 O   0  0  0  0  0  0  0  0  0  0  0  0
    2.5318    2.0753   -1.2965 N   0  0  0  0  0  0  0  0  0  0  0  0
    2.8809    2.2310   -2.2321 H   0  0  0  0  0  0  0  0  0  0  0  0
    2.0745    3.2371   -0.5680 C   0  0  1  0  0  0  0  0  0  0  0  0
    1.1421    3.0345   -0.0399 H   0  0  0  0  0  0  0  0  0  0  0  0
    2.8199    3.5753    0.1563 H   0  0  0  0  0  0  0  0  0  0  0  0
    1.8973    4.0417   -1.2775 H   0  0  0  0  0  0  0  0  0  0  0  0
  2  1  1  1
  2  5  1  0
  3  2  1  0
  4  2  1  0
  5  6  2  0
  5  7  1  0
  7  8  1  0
  9  7  1  0
  9 10  1  1
  9 11  1  0
 11 13  1  1
 12 11  1  0
 14 11  1  0
 15  9  1  0
 16 15  2  0
 17 19  1  0
 17 15  1  0
 18 17  1  0
 19 21  1  1
 19 22  1  0
 20 19  1  0
 22 23  2  0
 22 24  1  0
 24 25  1  0
 26 24  1  0
 26 27  1  1
 26 28  1  0
 28 31  1  1
 29 28  1  0
 30 28  1  0
 32 26  1  0
 33 32  2  0
 34 32  1  0
 34 36  1  0
 35 34  1  0
 36 37  1  1
 36 38  1  0
 39 36  1  0
M  END
$$$$
