-61.76692653
     RDKit          3D

 39 38  0  0  1  0  0  0  0  0999 V2000
   -2.9197    1.7262    2.5231 H   0  0  0  0  0  0  0  0  0  0  0  0
   -3.1821    1.0951    1.6789 C   0  0  1  0  0  0  0  0  0  0  0  0
   -4.2313    1.2426    1.4315 H   0  0  0  0  0  0  0  0  0  0  0  0
   -3.0383    0.0500    1.9449 H   0  0  0  0  0  0  0  0  0  0  0  0
   -2.3227    1.4646    0.5000 C   0  0  0  0  0  0  0  0  0  0  0  0
   -1.4834    2.3493    0.5228 O   0  0  0  0  0  0  0  0  0  0  0  0
   -2.5170    0.7449   -0.6296 N   0  0  0  0  0  0  0  0  0  0  0  0
   -1.9390    1.0175   -1.4132 H   0  0  0  0  0  0  0  0  0  0  0  0
   -3.2526   -0.4882   -0.7703 C   0  0  1  0  0  0  0  0  0  0  0  0
   -4.2774   -0.3465   -0.4048 H   0  0  0  0  0  0  0  0  0  0  0  0
   -3.3107   -0.8873   -2.2440 C   0  0  1  0  0  0  0  0  0  0  0  0
   -2.3115   -1.0776   -2.6317 H   0  0  0  0  0  0  0  0  0  0  0  0
   -3.8988   -1.7945   -2.3502 H   0  0  0  0  0  0  0  0  0  0  0  0
   -3.7745   -0.0973   -2.8308 H   0  0  0  0  0  0  0  0  0  0  0  0
   -2.6959   -1.6938    0.0211 C   0  0  0  0  0  0  0  0  0  0  0  0
   -3.4691   -2.5444    0.4139 O   0  0  0  0  0  0  0  0  0  0  0  0
   -1.3718   -1.8083    0.2126 N   0  0  0  0  0  0  0  0  0  0  0  0
   -1.0605   -2.6637    0.6748 H   0  0  0  0  0  0  0  0  0  0  0  0
   -0.2751   -0.9296   -0.0892 C   0  0  1  0  0  0  0  0  0  0  0  0
   -0.1518   -0.7945   -1.1721 H   0  0  0  0  0  0  0  0  0  0  0  0
   -0.3932    0.0456    0.3846 H   0  0  0  0  0  0  0  0  0  0  0  0
    1.0035   -1.5738    0.4632 C   0  0  0  0  0  0  0  0  0  0  0  0
    1.0012   -2.7134    0.8797 O   0  0  0  0  0  0  0  0  0  0  0  0
    2.0935   -0.7968    0.4502 N   0  0  0  0  0  0  0  0  0  0  0  0
    2.9614   -1.1992    0.7988 H   0  0  0  0  0  0  0  0  0  0  0  0
    2.2301    0.5859    0.0571 C   0  0  1  0  0  0  0  0  0  0  0  0
    1.6564    0.7750   -0.8549 H   0  0  0  0  0  0  0  0  0  0  0  0
    1.8016    1.5482    1.1834 C   0  0  1  0  0  0  0  0  0  0  0  0
    1.9985    1.0805    2.1446 H   0  0  0  0  0  0  0  0  0  0  0  0
    2.3708    2.4729    1.1404 H   0  0  0  0  0  0  0  0  0  0  0  0
    0.7455    1.8000    1.1210 H   0  0  0  0  0  0  0  0  0  0  0  0
    3.7244    0.7978   -0.2259 C   0  0  0  0  0  0  0  0  0  0  0  0
    4.5639    0.0476    0.2289 O   0  0  0  0  0  0  0  0  0  0  0  0
    4.0578    1.8723   -0.9635 N   0  0  0  0  0  0  0  0  0  0  0  0
    5.0490    1.9602   -1.1422 H   0  0  0  0  0  0  0  0  0  0  0  0
    3.1867    2.7679   -1.6876 C   0  0  1  0  0  0  0  0  0  0  0  0
    3.7313    3.6844   -1.9046 H   0  0  0  0  0  0  0  0  0  0  0  0
    2.8614    2.3271   -2.6353 H   0  0  0  0  0  0  0  0  0  0  0  0
    2.3086    3.0222   -1.0975 H   0  0  0  0  0  0  0  0  0  0  0  0
  2  4  1  1
  2  1  1  0
  3  2  1  0
  5  6  2  0
  5  2  1  0
  7  5  1  0
  8  7  1  0
  9  7  1  0
  9 10  1  1
  9 15  1  0
 11  9  1  0
 11 12  1  6
 13 11  1  0
 14 11  1  0
 15 17  1  0
 15 16  2  0
 17 18  1  0
 19 17  1  0
 19 21  1  1
 19 22  1  0
 20 19  1  0
 22 23  2  0
 24 22  1  0
 24 25  1  0
 26 27  1  6
 26 24  1  0
 26 28  1  0
 28 29  1  1
 30 28  1  0
 31 28  1  0
 32 26  1  0
 32 33  2  0
 34 32  1  0
 35 34  1  0
 36 39  1  1
 36 34  1  0
 37 36  1  0
 38 36  1  0
M  END
$$$$
