PCONF21/SER_aL/struc.xyz
     RDKit          3D

 43 42  0  0  0  0  0  0  0  0999 V2000
    2.2570    2.8230   -2.8930 H   0  0  0  0  0  0  0  0  0  0  0  0
    2.9940    2.6710   -2.1010 C   0  0  1  0  0  0  0  0  0  0  0  0
    3.2250    3.6530   -1.6750 H   0  0  0  0  0  0  0  0  0  0  0  0
    3.9080    2.2530   -2.5290 H   0  0  0  0  0  0  0  0  0  0  0  0
    2.3780    1.8010   -1.0210 C   0  0  0  0  0  0  0  0  0  0  0  0
    1.2050    1.9290   -0.6750 O   0  0  0  0  0  0  0  0  0  0  0  0
    3.2020    0.8500   -0.4790 N   0  0  0  0  0  0  0  0  0  0  0  0
    4.1820    0.9150   -0.7140 H   0  0  0  0  0  0  0  0  0  0  0  0
    2.8880    0.1620    0.7850 C   0  0  1  0  0  0  0  0  0  0  0  0
    3.6380   -0.6340    0.8820 H   0  0  0  0  0  0  0  0  0  0  0  0
    2.9630    1.0850    2.0020 C   0  0  0  0  0  0  0  0  0  0  0  0
    2.2340    1.8910    1.9100 H   0  0  0  0  0  0  0  0  0  0  0  0
    2.7340    0.5260    2.9110 H   0  0  0  0  0  0  0  0  0  0  0  0
    3.9660    1.5130    2.0900 H   0  0  0  0  0  0  0  0  0  0  0  0
    1.5150   -0.5420    0.7000 C   0  0  0  0  0  0  0  0  0  0  0  0
    0.6920   -0.4580    1.6050 O   0  0  0  0  0  0  0  0  0  0  0  0
    1.3130   -1.2760   -0.4270 N   0  0  0  0  0  0  0  0  0  0  0  0
    2.0970   -1.4070   -1.0490 H   0  0  0  0  0  0  0  0  0  0  0  0
    0.1410   -2.1310   -0.6190 C   0  0  1  0  0  0  0  0  0  0  0  0
    0.1990   -2.4910   -1.6530 H   0  0  0  0  0  0  0  0  0  0  0  0
    0.1440   -3.3490    0.3000 C   0  0  1  0  0  0  0  0  0  0  0  0
    0.1460   -3.0180    1.3450 H   0  0  0  0  0  0  0  0  0  0  0  0
   -0.7760   -3.9160    0.1240 H   0  0  0  0  0  0  0  0  0  0  0  0
    1.3150   -4.1010   -0.0290 O   0  0  0  0  0  0  0  0  0  0  0  0
    1.3360   -4.8740    0.5480 H   0  0  0  0  0  0  0  0  0  0  0  0
   -1.1800   -1.3360   -0.4850 C   0  0  2  0  0  0  0  0  0  0  0  0
   -2.1510   -1.8170    0.0830 O   0  0  0  0  0  0  0  0  0  0  0  0
   -1.2040   -0.1610   -1.1780 N   0  0  0  0  0  0  0  0  0  0  0  0
   -0.3080    0.2500   -1.4080 H   0  0  0  0  0  0  0  0  0  0  0  0
   -2.3620    0.7450   -1.1640 C   0  0  1  0  0  0  0  0  0  0  0  0
   -2.0200    1.6480   -1.6820 H   0  0  0  0  0  0  0  0  0  0  0  0
   -3.5610    0.1620   -1.9110 C   0  0  1  0  0  0  0  0  0  0  0  0
   -3.9030   -0.7500   -1.4200 H   0  0  0  0  0  0  0  0  0  0  0  0
   -4.3830    0.8800   -1.9060 H   0  0  0  0  0  0  0  0  0  0  0  0
   -3.2820   -0.0640   -2.9450 H   0  0  0  0  0  0  0  0  0  0  0  0
   -2.7620    1.2000    0.2660 C   0  0  2  0  0  0  0  0  0  0  0  0
   -3.9370    1.2800    0.6030 O   0  0  0  0  0  0  0  0  0  0  0  0
   -1.7210    1.6170    1.0390 N   0  0  0  0  0  0  0  0  0  0  0  0
   -0.7810    1.3960    0.7380 H   0  0  0  0  0  0  0  0  0  0  0  0
   -1.9020    1.9800    2.4320 C   0  0  1  0  0  0  0  0  0  0  0  0
   -1.4490    1.2330    3.0940 H   0  0  0  0  0  0  0  0  0  0  0  0
   -1.4550    2.9580    2.6420 H   0  0  0  0  0  0  0  0  0  0  0  0
   -2.9740    2.0290    2.6250 H   0  0  0  0  0  0  0  0  0  0  0  0
  2  1  1  6
  2  4  1  0
  2  3  1  0
  2  5  1  0
  5  6  1  0
  5  7  1  0
  7  8  1  0
  7  9  1  0
  9 15  1  0
  9 10  1  1
  9 11  1  0
 11 12  1  0
 11 14  1  0
 11 13  1  0
 15 17  1  0
 15 16  2  0
 17 18  1  0
 17 19  1  0
 19 20  1  6
 19 26  1  0
 19 21  1  0
 21 24  1  0
 21 23  1  1
 21 22  1  0
 24 25  1  0
 26 28  1  0
 26 27  1  6
 28 29  1  0
 28 30  1  0
 30 32  1  0
 30 31  1  6
 30 36  1  0
 32 35  1  6
 32 34  1  0
 32 33  1  0
 36 37  1  6
 36 38  1  0
 38 39  1  0
 38 40  1  0
 40 43  1  1
 40 42  1  0
 40 41  1  0
M  END
$$$$
