PCONF21/SER_pII/struc.xyz
     RDKit          3D

 43 42  0  0  0  0  0  0  0  0999 V2000
   -7.2350   -0.0710   -1.0380 H   0  0  0  0  0  0  0  0  0  0  0  0
   -6.3610   -0.7130   -0.9220 C   0  0  1  0  0  0  0  0  0  0  0  0
   -5.9880   -0.9670   -1.9200 H   0  0  0  0  0  0  0  0  0  0  0  0
   -6.6470   -1.6400   -0.4160 H   0  0  0  0  0  0  0  0  0  0  0  0
   -5.2850    0.0530   -0.1700 C   0  0  0  0  0  0  0  0  0  0  0  0
   -5.1910    1.2720   -0.2150 O   0  0  0  0  0  0  0  0  0  0  0  0
   -4.4350   -0.7290    0.5850 N   0  0  0  0  0  0  0  0  0  0  0  0
   -4.3780   -1.7020    0.3110 H   0  0  0  0  0  0  0  0  0  0  0  0
   -3.1770   -0.1720    1.0530 C   0  0  1  0  0  0  0  0  0  0  0  0
   -3.3850    0.8600    1.3500 H   0  0  0  0  0  0  0  0  0  0  0  0
   -2.6330   -0.9770    2.2420 C   0  0  0  0  0  0  0  0  0  0  0  0
   -2.4930   -2.0260    1.9580 H   0  0  0  0  0  0  0  0  0  0  0  0
   -1.6610   -0.5930    2.5600 H   0  0  0  0  0  0  0  0  0  0  0  0
   -3.3320   -0.9330    3.0810 H   0  0  0  0  0  0  0  0  0  0  0  0
   -2.1350   -0.1750   -0.0810 C   0  0  0  0  0  0  0  0  0  0  0  0
   -2.1320   -1.0420   -0.9480 O   0  0  0  0  0  0  0  0  0  0  0  0
   -1.2080    0.8270   -0.0190 N   0  0  0  0  0  0  0  0  0  0  0  0
   -1.1640    1.3830    0.8250 H   0  0  0  0  0  0  0  0  0  0  0  0
    0.0420    0.7230   -0.7420 C   0  0  1  0  0  0  0  0  0  0  0  0
   -0.1940    0.2590   -1.7050 H   0  0  0  0  0  0  0  0  0  0  0  0
    0.6340    2.1090   -1.0050 C   0  0  1  0  0  0  0  0  0  0  0  0
    1.5080    2.0060   -1.6650 H   0  0  0  0  0  0  0  0  0  0  0  0
   -0.1250    2.7180   -1.5160 H   0  0  0  0  0  0  0  0  0  0  0  0
    1.0090    2.6620    0.2500 O   0  0  0  0  0  0  0  0  0  0  0  0
    1.4090    3.5260    0.0910 H   0  0  0  0  0  0  0  0  0  0  0  0
    1.0420   -0.1830    0.0060 C   0  0  0  0  0  0  0  0  0  0  0  0
    1.0140   -0.3280    1.2200 O   0  0  0  0  0  0  0  0  0  0  0  0
    1.9210   -0.8520   -0.8120 N   0  0  0  0  0  0  0  0  0  0  0  0
    2.0210   -0.4750   -1.7470 H   0  0  0  0  0  0  0  0  0  0  0  0
    3.1700   -1.3560   -0.2580 C   0  0  1  0  0  0  0  0  0  0  0  0
    2.9290   -1.7480    0.7350 H   0  0  0  0  0  0  0  0  0  0  0  0
    3.7450   -2.4650   -1.1480 C   0  0  1  0  0  0  0  0  0  0  0  0
    3.9850   -2.0720   -2.1410 H   0  0  0  0  0  0  0  0  0  0  0  0
    4.6640   -2.8700   -0.7170 H   0  0  0  0  0  0  0  0  0  0  0  0
    3.0190   -3.2740   -1.2570 H   0  0  0  0  0  0  0  0  0  0  0  0
    4.1770   -0.1920   -0.1370 C   0  0  2  0  0  0  0  0  0  0  0  0
    4.1870    0.7210   -0.9570 O   0  0  0  0  0  0  0  0  0  0  0  0
    5.0770   -0.3070    0.8780 N   0  0  0  0  0  0  0  0  0  0  0  0
    4.9140   -1.0140    1.5780 H   0  0  0  0  0  0  0  0  0  0  0  0
    6.1020    0.6920    1.1300 C   0  0  1  0  0  0  0  0  0  0  0  0
    5.8670    1.2980    2.0120 H   0  0  0  0  0  0  0  0  0  0  0  0
    7.0770    0.2170    1.2770 H   0  0  0  0  0  0  0  0  0  0  0  0
    6.1460    1.3440    0.2580 H   0  0  0  0  0  0  0  0  0  0  0  0
  2  1  1  6
  2  3  1  0
  2  4  1  0
  2  5  1  0
  5  6  1  0
  5  7  1  0
  7  8  1  0
  7  9  1  0
  9 15  1  0
  9 10  1  1
  9 11  1  0
 11 12  1  0
 11 13  1  0
 11 14  1  0
 15 16  2  0
 15 17  1  0
 17 19  1  0
 17 18  1  0
 19 20  1  6
 19 21  1  0
 19 26  1  0
 21 22  1  6
 21 23  1  0
 21 24  1  0
 24 25  1  0
 26 28  1  0
 26 27  1  0
 28 29  1  0
 28 30  1  0
 30 32  1  0
 30 36  1  0
 30 31  1  1
 32 33  1  6
 32 35  1  0
 32 34  1  0
 36 37  1  6
 36 38  1  0
 38 40  1  0
 38 39  1  0
 40 43  1  6
 40 42  1  0
 40 41  1  0
M  END
$$$$
