Coordinates from ORCA-job xah
     RDKit          3D

 23 22  0  0  0  0  0  0  0  0999 V2000
    1.0160   -0.9730    0.4460 N   0  0  0  0  0  0  0  0  0  0  0  0
   -0.2530   -0.5410   -0.1260 C   0  0  2  0  0  0  0  0  0  0  0  0
   -0.5270    0.9130    0.2780 C   0  0  0  0  0  0  0  0  0  0  0  0
   -1.3060    1.2020    1.1840 O   0  0  0  0  0  0  0  0  0  0  0  0
   -1.3620   -1.4570    0.3510 C   0  0  2  0  0  0  0  0  0  0  0  0
   -2.9490   -1.1120   -0.4580 S   0  0  0  0  0  0  0  0  0  0  0  0
    1.0160   -1.3650    1.3720 H   0  0  0  0  0  0  0  0  0  0  0  0
   -0.1500   -0.6030   -1.2090 H   0  0  0  0  0  0  0  0  0  0  0  0
   -1.4840   -1.3700    1.4290 H   0  0  0  0  0  0  0  0  0  0  0  0
   -1.1130   -2.4870    0.1010 H   0  0  0  0  0  0  0  0  0  0  0  0
    2.2020   -0.6950   -0.1560 C   0  0  0  0  0  0  0  0  0  0  0  0
    2.2700   -0.0740   -1.2150 O   0  0  0  0  0  0  0  0  0  0  0  0
    0.1860    1.8080   -0.4350 N   0  0  0  0  0  0  0  0  0  0  0  0
    0.1630    3.2190   -0.1140 C   0  0  1  0  0  0  0  0  0  0  0  0
    0.9660    3.4930    0.5710 H   0  0  0  0  0  0  0  0  0  0  0  0
    0.2590    3.8040   -1.0240 H   0  0  0  0  0  0  0  0  0  0  0  0
   -0.7870    3.4420    0.3630 H   0  0  0  0  0  0  0  0  0  0  0  0
    0.9050    1.4330   -1.0420 H   0  0  0  0  0  0  0  0  0  0  0  0
    3.4310   -1.2140    0.5450 C   0  0  2  0  0  0  0  0  0  0  0  0
    3.9470   -1.8940   -0.1280 H   0  0  0  0  0  0  0  0  0  0  0  0
    3.2100   -1.7300    1.4760 H   0  0  0  0  0  0  0  0  0  0  0  0
    4.0960   -0.3770    0.7430 H   0  0  0  0  0  0  0  0  0  0  0  0
   -3.1400    0.0520    0.1720 H   0  0  0  0  0  0  0  0  0  0  0  0
  1 11  1  0
  1  2  1  0
  1  7  1  0
  2  8  1  6
  2  3  1  0
  2  5  1  0
  3 13  1  0
  3  4  1  0
  5  6  1  0
  5 10  1  1
  5  9  1  0
  6 23  1  0
 11 12  1  0
 11 19  1  0
 13 18  1  0
 13 14  1  0
 14 16  1  6
 14 17  1  0
 14 15  1  0
 19 20  1  6
 19 22  1  0
 19 21  1  0
M  END
$$$$
