Coordinates from ORCA-job xao
     RDKit          3D

 23 22  0  0  0  0  0  0  0  0999 V2000
    0.4980    0.7150    0.4780 N   0  0  0  0  0  0  0  0  0  0  0  0
    0.1990   -0.5170   -0.2320 C   0  0  2  0  0  0  0  0  0  0  0  0
   -1.2210   -1.0010    0.1110 C   0  0  0  0  0  0  0  0  0  0  0  0
   -1.4220   -1.9680    0.8390 O   0  0  0  0  0  0  0  0  0  0  0  0
    1.1900   -1.6070    0.1380 C   0  0  2  0  0  0  0  0  0  0  0  0
    2.9330   -1.1190   -0.0170 S   0  0  0  0  0  0  0  0  0  0  0  0
    1.2400    0.6840    1.1590 H   0  0  0  0  0  0  0  0  0  0  0  0
    0.2480   -0.3020   -1.3020 H   0  0  0  0  0  0  0  0  0  0  0  0
    0.9890   -2.4920   -0.4580 H   0  0  0  0  0  0  0  0  0  0  0  0
    1.0490   -1.8900    1.1800 H   0  0  0  0  0  0  0  0  0  0  0  0
    0.1410    1.9250   -0.0200 C   0  0  0  0  0  0  0  0  0  0  0  0
   -0.6080    2.0410   -0.9910 O   0  0  0  0  0  0  0  0  0  0  0  0
   -2.1940   -0.2670   -0.4650 N   0  0  0  0  0  0  0  0  0  0  0  0
   -3.5850   -0.5170   -0.1510 C   0  0  1  0  0  0  0  0  0  0  0  0
   -4.2090   -0.0450   -0.9040 H   0  0  0  0  0  0  0  0  0  0  0  0
   -3.7630   -1.5890   -0.1520 H   0  0  0  0  0  0  0  0  0  0  0  0
   -3.8560   -0.1310    0.8320 H   0  0  0  0  0  0  0  0  0  0  0  0
   -1.9080    0.5980   -0.9100 H   0  0  0  0  0  0  0  0  0  0  0  0
    0.7140    3.1220    0.6910 C   0  0  2  0  0  0  0  0  0  0  0  0
    1.3700    3.6490    0.0000 H   0  0  0  0  0  0  0  0  0  0  0  0
    1.2720    2.8620    1.5860 H   0  0  0  0  0  0  0  0  0  0  0  0
   -0.0990    3.7940    0.9520 H   0  0  0  0  0  0  0  0  0  0  0  0
    2.8760   -0.7550   -1.3040 H   0  0  0  0  0  0  0  0  0  0  0  0
  1  2  1  0
  1 11  1  0
  1  7  1  0
  2  8  1  6
  2  3  1  0
  2  5  1  0
  3 13  1  0
  3  4  1  0
  5  9  1  6
  5  6  1  0
  5 10  1  0
  6 23  1  0
 11 12  1  0
 11 19  1  0
 13 18  1  0
 13 14  1  0
 14 15  1  6
 14 16  1  0
 14 17  1  0
 19 20  1  6
 19 22  1  0
 19 21  1  0
M  END
$$$$
