Coordinates from ORCA-job xal
     RDKit          3D

 23 22  0  0  0  0  0  0  0  0999 V2000
    1.0430   -0.6740   -0.3300 N   0  0  0  0  0  0  0  0  0  0  0  0
   -0.0430   -0.3560    0.5510 C   0  0  2  0  0  0  0  0  0  0  0  0
   -1.3380   -0.6350   -0.1980 C   0  0  2  0  0  0  0  0  0  0  0  0
   -1.3780   -0.6660   -1.4230 O   0  0  0  0  0  0  0  0  0  0  0  0
   -0.0130    1.1040    1.0350 C   0  0  1  0  0  0  0  0  0  0  0  0
    0.0340    2.3350   -0.2950 S   0  0  0  0  0  0  0  0  0  0  0  0
    0.8280   -0.6680   -1.3150 H   0  0  0  0  0  0  0  0  0  0  0  0
    0.0280   -0.9870    1.4400 H   0  0  0  0  0  0  0  0  0  0  0  0
   -0.8550    1.2940    1.6990 H   0  0  0  0  0  0  0  0  0  0  0  0
    0.9090    1.2500    1.5950 H   0  0  0  0  0  0  0  0  0  0  0  0
    2.3210   -0.7190    0.1270 C   0  0  0  0  0  0  0  0  0  0  0  0
    2.5890   -0.6000    1.3190 O   0  0  0  0  0  0  0  0  0  0  0  0
   -2.4270   -0.7680    0.5960 N   0  0  0  0  0  0  0  0  0  0  0  0
   -3.7540   -0.9890    0.0580 C   0  0  1  0  0  0  0  0  0  0  0  0
   -4.4630   -0.2870    0.4930 H   0  0  0  0  0  0  0  0  0  0  0  0
   -3.6990   -0.8290   -1.0140 H   0  0  0  0  0  0  0  0  0  0  0  0
   -4.0940   -2.0060    0.2460 H   0  0  0  0  0  0  0  0  0  0  0  0
   -2.2840   -0.8160    1.5890 H   0  0  0  0  0  0  0  0  0  0  0  0
    3.3780   -0.9180   -0.9290 C   0  0  2  0  0  0  0  0  0  0  0  0
    3.8760    0.0340   -1.1030 H   0  0  0  0  0  0  0  0  0  0  0  0
    2.9700   -1.2790   -1.8700 H   0  0  0  0  0  0  0  0  0  0  0  0
    4.1160   -1.6210   -0.5540 H   0  0  0  0  0  0  0  0  0  0  0  0
   -1.0830    1.9400   -0.9180 H   0  0  0  0  0  0  0  0  0  0  0  0
  1  7  1  0
  1 11  1  0
  1  2  1  0
  2  3  1  0
  2  5  1  0
  2  8  1  1
  3  4  1  6
  3 13  1  0
  5  6  1  0
  5 10  1  1
  5  9  1  0
  6 23  1  0
 11 19  1  0
 11 12  1  0
 13 14  1  0
 13 18  1  0
 14 16  1  6
 14 17  1  0
 14 15  1  0
 19 21  1  6
 19 20  1  0
 19 22  1  0
M  END
$$$$
