-55.67405641
     RDKit          3D

 25 26  0  0  0  0  0  0  0  0999 V2000
   -1.6794    3.0564   -0.0262 C   0  0  0  0  0  0  0  0  0  0  0  0
   -2.9514    2.5159   -0.1184 C   0  0  0  0  0  0  0  0  0  0  0  0
   -3.1121    1.1426   -0.1234 C   0  0  0  0  0  0  0  0  0  0  0  0
   -2.0116    0.3003   -0.0206 C   0  0  0  0  0  0  0  0  0  0  0  0
   -0.7225    0.8352    0.1131 C   0  0  0  0  0  0  0  0  0  0  0  0
   -0.5832    2.2263    0.0890 C   0  0  0  0  0  0  0  0  0  0  0  0
    0.4931    0.0476    0.2741 C   0  0  0  0  0  0  0  0  0  0  0  0
    0.7709   -1.1587    0.8835 C   0  0  0  0  0  0  0  0  0  0  0  0
    2.1569   -1.3435    0.7796 C   0  0  0  0  0  0  0  0  0  0  0  0
    2.6427   -0.2385    0.1173 C   0  0  0  0  0  0  0  0  0  0  0  0
    1.6332    0.6021   -0.1758 O   0  0  0  0  0  0  0  0  0  0  0  0
    4.0050    0.1228   -0.2715 C   0  0  0  0  0  0  0  0  0  0  0  0
    4.3309    1.1400   -0.8272 O   0  0  0  0  0  0  0  0  0  0  0  0
    4.8849   -0.8324    0.0766 O   0  0  0  0  0  0  0  0  0  0  0  0
   -2.2579   -1.1818   -0.0922 C   0  0  2  0  0  0  0  0  0  0  0  0
   -1.3763   -1.8325   -0.8679 F   0  0  0  0  0  0  0  0  0  0  0  0
   -3.4679   -1.4767   -0.5911 F   0  0  0  0  0  0  0  0  0  0  0  0
   -2.2140   -1.7784    1.1178 F   0  0  0  0  0  0  0  0  0  0  0  0
   -1.5419    4.1267   -0.0394 H   0  0  0  0  0  0  0  0  0  0  0  0
   -3.8154    3.1567   -0.1972 H   0  0  0  0  0  0  0  0  0  0  0  0
   -4.0986    0.7164   -0.2201 H   0  0  0  0  0  0  0  0  0  0  0  0
    0.4086    2.6432    0.1683 H   0  0  0  0  0  0  0  0  0  0  0  0
    0.0842   -1.8208    1.3664 H   0  0  0  0  0  0  0  0  0  0  0  0
    2.7341   -2.1698    1.1390 H   0  0  0  0  0  0  0  0  0  0  0  0
    5.7772   -0.5646   -0.1946 H   0  0  0  0  0  0  0  0  0  0  0  0
  1  6  2  0
  2  1  1  0
  3  2  2  0
  3  4  1  0
  4  5  2  0
  5  7  1  0
  6  5  1  0
  6 22  1  0
  7  8  2  0
  8 23  1  0
  9  8  1  0
  9 24  1  0
 10  9  2  0
 11 10  1  0
 11  7  1  0
 12 14  1  0
 12 10  1  0
 13 12  2  0
 15  4  1  0
 15 18  1  1
 16 15  1  0
 17 15  1  0
 19  1  1  0
 20  2  1  0
 21  3  1  0
 25 14  1  0
M  END
$$$$
