-55.67318950
     RDKit          3D

 25 26  0  0  0  0  0  0  0  0999 V2000
   -1.5368    3.0125    0.1273 C   0  0  0  0  0  0  0  0  0  0  0  0
   -2.8382    2.5401    0.1415 C   0  0  0  0  0  0  0  0  0  0  0  0
   -3.0636    1.1772    0.1056 C   0  0  0  0  0  0  0  0  0  0  0  0
   -2.0064    0.2756    0.0563 C   0  0  0  0  0  0  0  0  0  0  0  0
   -0.6792    0.7379    0.0443 C   0  0  0  0  0  0  0  0  0  0  0  0
   -0.4827    2.1255    0.0801 C   0  0  0  0  0  0  0  0  0  0  0  0
    0.5224   -0.0862   -0.0020 C   0  0  0  0  0  0  0  0  0  0  0  0
    0.7896   -1.4425   -0.0172 C   0  0  0  0  0  0  0  0  0  0  0  0
    2.1840   -1.5787   -0.0604 C   0  0  0  0  0  0  0  0  0  0  0  0
    2.6937   -0.3008   -0.0686 C   0  0  0  0  0  0  0  0  0  0  0  0
    1.6900    0.5925   -0.0334 O   0  0  0  0  0  0  0  0  0  0  0  0
    4.0834    0.1482   -0.1041 C   0  0  0  0  0  0  0  0  0  0  0  0
    5.0350   -0.5916   -0.1384 O   0  0  0  0  0  0  0  0  0  0  0  0
    4.1971    1.4843   -0.0936 O   0  0  0  0  0  0  0  0  0  0  0  0
   -2.3590   -1.1858    0.0155 C   0  0  2  0  0  0  0  0  0  0  0  0
   -1.8928   -1.8092   -1.0832 F   0  0  0  0  0  0  0  0  0  0  0  0
   -3.6825   -1.4029    0.0115 F   0  0  0  0  0  0  0  0  0  0  0  0
   -1.8900   -1.8697    1.0770 F   0  0  0  0  0  0  0  0  0  0  0  0
   -1.3424    4.0738    0.1536 H   0  0  0  0  0  0  0  0  0  0  0  0
   -3.6728    3.2221    0.1796 H   0  0  0  0  0  0  0  0  0  0  0  0
   -4.0760    0.8049    0.1151 H   0  0  0  0  0  0  0  0  0  0  0  0
    0.5287    2.4991    0.0702 H   0  0  0  0  0  0  0  0  0  0  0  0
    0.1055   -2.2614    0.0016 H   0  0  0  0  0  0  0  0  0  0  0  0
    2.7519   -2.4855   -0.0823 H   0  0  0  0  0  0  0  0  0  0  0  0
    5.1340    1.7337   -0.1174 H   0  0  0  0  0  0  0  0  0  0  0  0
  1  2  1  0
  1 19  1  0
  2 20  1  0
  3 21  1  0
  3  2  2  0
  4  3  1  0
  5  4  2  0
  5  6  1  0
  6  1  2  0
  7  5  1  0
  8  7  2  0
  8 23  1  0
  9  8  1  0
 10  9  2  0
 10 11  1  0
 11  7  1  0
 12 14  1  0
 12 10  1  0
 13 12  2  0
 15  4  1  0
 15 18  1  1
 16 15  1  0
 17 15  1  0
 22  6  1  0
 24  9  1  0
 25 14  1  0
M  END
$$$$
