Coordinates from ORCA-job xab
     RDKit          3D

 26 26  0  0  0  0  0  0  0  0999 V2000
   -1.1980    0.1260   -0.2270 N   0  0  0  0  0  0  0  0  0  0  0  0
    0.1160    0.4150   -0.7540 C   0  0  2  0  0  0  0  0  0  0  0  0
    1.2310   -0.0480    0.1830 C   0  0  0  0  0  0  0  0  0  0  0  0
    1.0820   -0.1000    1.3960 O   0  0  0  0  0  0  0  0  0  0  0  0
    0.1070    1.9500   -0.8290 C   0  0  2  0  0  0  0  0  0  0  0  0
   -0.7340    2.3390    0.3870 C   0  0  2  0  0  0  0  0  0  0  0  0
   -1.8380    1.2860    0.3950 C   0  0  1  0  0  0  0  0  0  0  0  0
    0.2540   -0.0300   -1.7420 H   0  0  0  0  0  0  0  0  0  0  0  0
   -0.3910    2.2550   -1.7500 H   0  0  0  0  0  0  0  0  0  0  0  0
    1.1120    2.3700   -0.8220 H   0  0  0  0  0  0  0  0  0  0  0  0
   -1.1240    3.3520    0.3210 H   0  0  0  0  0  0  0  0  0  0  0  0
   -0.1360    2.2490    1.2910 H   0  0  0  0  0  0  0  0  0  0  0  0
   -2.7070    1.5930   -0.1900 H   0  0  0  0  0  0  0  0  0  0  0  0
   -2.1810    1.0230    1.3930 H   0  0  0  0  0  0  0  0  0  0  0  0
    2.3970   -0.3430   -0.4500 N   0  0  0  0  0  0  0  0  0  0  0  0
    2.4190   -0.2930   -1.4530 H   0  0  0  0  0  0  0  0  0  0  0  0
    3.5980   -0.7080    0.2710 C   0  0  1  0  0  0  0  0  0  0  0  0
    3.3370   -0.7520    1.3230 H   0  0  0  0  0  0  0  0  0  0  0  0
    3.9620   -1.6830   -0.0480 H   0  0  0  0  0  0  0  0  0  0  0  0
    4.3850    0.0300    0.1290 H   0  0  0  0  0  0  0  0  0  0  0  0
   -1.7450   -1.1150   -0.0820 C   0  0  0  0  0  0  0  0  0  0  0  0
   -2.8360   -1.2730    0.4540 O   0  0  0  0  0  0  0  0  0  0  0  0
   -0.9310   -2.2650   -0.6300 C   0  0  1  0  0  0  0  0  0  0  0  0
    0.0130   -2.3570   -0.0920 H   0  0  0  0  0  0  0  0  0  0  0  0
   -1.5070   -3.1740   -0.5000 H   0  0  0  0  0  0  0  0  0  0  0  0
   -0.7080   -2.1270   -1.6870 H   0  0  0  0  0  0  0  0  0  0  0  0
  1  2  1  0
  1 21  1  0
  1  7  1  0
  2  8  1  6
  2  5  1  0
  2  3  1  0
  3 15  1  0
  3  4  1  0
  5  9  1  6
  5 10  1  0
  5  6  1  0
  6 11  1  6
  6  7  1  0
  6 12  1  0
  7 13  1  6
  7 14  1  0
 15 16  1  0
 15 17  1  0
 17 19  1  6
 17 20  1  0
 17 18  1  0
 21 23  1  0
 21 22  1  0
 23 26  1  6
 23 25  1  0
 23 24  1  0
M  END
$$$$
