 energy: -24.287173713583 gnorm: 0.000035378986 xtb: 6.5.1 (9af7eec)
     RDKit          3D

 14 13  0  0  0  0  0  0  0  0999 V2000
    0.0309    1.2832   -0.1231 N   0  0  0  0  0  0  0  0  0  0  0  0
   -0.1719   -0.1176    0.1845 C   0  0  2  0  0  0  0  0  0  0  0  0
    1.0888   -0.9541   -0.0234 C   0  0  0  0  0  0  0  0  0  0  0  0
    1.0032   -2.1571    0.5447 O   0  0  0  0  0  0  0  0  0  0  0  0
    2.0483   -0.5789   -0.6421 O   0  0  0  0  0  0  0  0  0  0  0  0
   -1.2637   -0.6846   -0.7293 C   0  0  1  0  0  0  0  0  0  0  0  0
   -2.8418    0.1802   -0.4466 S   0  0  0  0  0  0  0  0  0  0  0  0
    0.5115    1.3660   -1.0152 H   0  0  0  0  0  0  0  0  0  0  0  0
    0.6180    1.7242    0.5756 H   0  0  0  0  0  0  0  0  0  0  0  0
   -0.4954   -0.2193    1.2255 H   0  0  0  0  0  0  0  0  0  0  0  0
    1.8082   -2.6755    0.3813 H   0  0  0  0  0  0  0  0  0  0  0  0
   -0.9859   -0.5608   -1.7771 H   0  0  0  0  0  0  0  0  0  0  0  0
   -1.4434   -1.7366   -0.5162 H   0  0  0  0  0  0  0  0  0  0  0  0
   -2.2850    1.3880   -0.4590 H   0  0  0  0  0  0  0  0  0  0  0  0
  1  2  1  0
  1  9  1  0
  1  8  1  0
  2 10  1  1
  2  3  1  0
  3  4  1  0
  3  5  2  0
  4 11  1  0
  6 13  1  1
  6 12  1  0
  6  2  1  0
  7 14  1  0
  7  6  1  0
M  END
$$$$
