 energy: -24.284628947318 gnorm: 0.000014497107 xtb: 6.5.1 (9af7eec)
     RDKit          3D

 14 13  0  0  0  0  0  0  0  0999 V2000
    0.7157   -1.4511   -0.6458 N   0  0  0  0  0  0  0  0  0  0  0  0
    0.3807   -0.1589   -0.0833 C   0  0  2  0  0  0  0  0  0  0  0  0
    0.3290   -0.1859    1.4459 C   0  0  0  0  0  0  0  0  0  0  0  0
    0.0914    1.0168    1.9706 O   0  0  0  0  0  0  0  0  0  0  0  0
    0.4927   -1.1772    2.1032 O   0  0  0  0  0  0  0  0  0  0  0  0
   -0.9595    0.3382   -0.6384 C   0  0  1  0  0  0  0  0  0  0  0  0
   -2.3717   -0.7130   -0.1554 S   0  0  0  0  0  0  0  0  0  0  0  0
    0.1819   -2.1709   -0.1647 H   0  0  0  0  0  0  0  0  0  0  0  0
    1.6938   -1.6643   -0.4863 H   0  0  0  0  0  0  0  0  0  0  0  0
    1.1447    0.5704   -0.3793 H   0  0  0  0  0  0  0  0  0  0  0  0
    0.0359    0.9618    2.9385 H   0  0  0  0  0  0  0  0  0  0  0  0
   -1.1841    1.3275   -0.2436 H   0  0  0  0  0  0  0  0  0  0  0  0
   -0.9186    0.3699   -1.7254 H   0  0  0  0  0  0  0  0  0  0  0  0
   -2.0293   -1.7533   -0.9093 H   0  0  0  0  0  0  0  0  0  0  0  0
  1  2  1  0
  1  9  1  0
  1  8  1  0
  2 10  1  1
  2  3  1  0
  3  4  1  0
  3  5  2  0
  4 11  1  0
  6 13  1  6
  6 12  1  0
  6  2  1  0
  7 14  1  0
  7  6  1  0
M  END
$$$$
