 energy: -31.329027884042 gnorm: 0.000036363476 xtb: 6.5.1 (9af7eec)
     RDKit          3D

 16 15  0  0  0  0  0  0  0  0999 V2000
   -0.4918    1.2479   -0.9503 N   0  0  0  0  0  0  0  0  0  0  0  0
   -0.5016   -0.1067   -0.4351 C   0  0  2  0  0  0  0  0  0  0  0  0
   -1.9151   -0.4798   -0.0230 C   0  0  0  0  0  0  0  0  0  0  0  0
   -2.9059    0.0445   -0.4538 O   0  0  0  0  0  0  0  0  0  0  0  0
   -1.9575   -1.5037    0.8357 O   0  0  0  0  0  0  0  0  0  0  0  0
    0.4958   -0.2202    0.7232 C   0  0  2  0  0  0  0  0  0  0  0  0
    1.9148   -0.1945    0.2137 C   0  0  0  0  0  0  0  0  0  0  0  0
    2.2519   -0.2827   -0.9358 O   0  0  0  0  0  0  0  0  0  0  0  0
    2.7922   -0.0737    1.2151 O   0  0  0  0  0  0  0  0  0  0  0  0
   -0.2173   -0.8623   -1.1945 H   0  0  0  0  0  0  0  0  0  0  0  0
    0.3482   -1.1515    1.2717 H   0  0  0  0  0  0  0  0  0  0  0  0
    0.3605    0.6133    1.4126 H   0  0  0  0  0  0  0  0  0  0  0  0
    0.2784    1.3760   -1.5951 H   0  0  0  0  0  0  0  0  0  0  0  0
   -1.3638    1.4434   -1.4306 H   0  0  0  0  0  0  0  0  0  0  0  0
   -2.8797   -1.7276    1.0407 H   0  0  0  0  0  0  0  0  0  0  0  0
    3.7006   -0.0630    0.8738 H   0  0  0  0  0  0  0  0  0  0  0  0
  1 14  1  0
  1  2  1  0
  1 13  1  0
  2 10  1  6
  2  3  1  0
  3  5  1  0
  3  4  2  0
  5 15  1  0
  6 11  1  1
  6 12  1  0
  6  2  1  0
  7  6  1  0
  8  7  2  0
  9  7  1  0
  9 16  1  0
M  END
$$$$
