PCONF21/SER_aR/struc.xyz
     RDKit          3D

 43 42  0  0  0  0  0  0  0  0999 V2000
   -1.7100   -2.5240    3.1140 H   0  0  0  0  0  0  0  0  0  0  0  0
   -2.3200   -2.8280    2.2620 C   0  0  1  0  0  0  0  0  0  0  0  0
   -3.3740   -2.6410    2.4830 H   0  0  0  0  0  0  0  0  0  0  0  0
   -2.1740   -3.9040    2.1230 H   0  0  0  0  0  0  0  0  0  0  0  0
   -1.8220   -2.1070    1.0220 C   0  0  0  0  0  0  0  0  0  0  0  0
   -0.6230   -2.0020    0.7670 O   0  0  0  0  0  0  0  0  0  0  0  0
   -2.7820   -1.5600    0.2170 N   0  0  0  0  0  0  0  0  0  0  0  0
   -3.7470   -1.7950    0.4120 H   0  0  0  0  0  0  0  0  0  0  0  0
   -2.4790   -1.0840   -1.1360 C   0  0  1  0  0  0  0  0  0  0  0  0
   -2.0610   -1.9030   -1.7310 H   0  0  0  0  0  0  0  0  0  0  0  0
   -3.7520   -0.5600   -1.8060 C   0  0  0  0  0  0  0  0  0  0  0  0
   -4.1900    0.2740   -1.2460 H   0  0  0  0  0  0  0  0  0  0  0  0
   -3.5200   -0.2090   -2.8140 H   0  0  0  0  0  0  0  0  0  0  0  0
   -4.5030   -1.3530   -1.8910 H   0  0  0  0  0  0  0  0  0  0  0  0
   -1.3660   -0.0180   -1.1380 C   0  0  0  0  0  0  0  0  0  0  0  0
   -0.4540   -0.0690   -1.9530 O   0  0  0  0  0  0  0  0  0  0  0  0
   -1.4920    0.9770   -0.2200 N   0  0  0  0  0  0  0  0  0  0  0  0
   -2.3540    1.0520    0.3050 H   0  0  0  0  0  0  0  0  0  0  0  0
   -0.5930    2.1260   -0.1910 C   0  0  1  0  0  0  0  0  0  0  0  0
   -0.6500    2.6930   -1.1240 H   0  0  0  0  0  0  0  0  0  0  0  0
   -0.9740    3.0340    0.9740 C   0  0  1  0  0  0  0  0  0  0  0  0
   -0.9710    2.4560    1.9110 H   0  0  0  0  0  0  0  0  0  0  0  0
   -0.2110    3.8190    1.0550 H   0  0  0  0  0  0  0  0  0  0  0  0
   -2.2600    3.5790    0.6910 O   0  0  0  0  0  0  0  0  0  0  0  0
   -2.4910    4.1890    1.4020 H   0  0  0  0  0  0  0  0  0  0  0  0
    0.8900    1.7050   -0.0460 C   0  0  1  0  0  0  0  0  0  0  0  0
    1.7680    2.3070   -0.6430 O   0  0  0  0  0  0  0  0  0  0  0  0
    1.1280    0.7730    0.9270 N   0  0  0  0  0  0  0  0  0  0  0  0
    0.3540    0.1590    1.1620 H   0  0  0  0  0  0  0  0  0  0  0  0
    2.4710    0.2250    1.1350 C   0  0  1  0  0  0  0  0  0  0  0  0
    3.1410    1.0620    1.3460 H   0  0  0  0  0  0  0  0  0  0  0  0
    2.4540   -0.7460    2.3190 C   0  0  1  0  0  0  0  0  0  0  0  0
    1.7660   -1.5780    2.1320 H   0  0  0  0  0  0  0  0  0  0  0  0
    3.4560   -1.1530    2.4740 H   0  0  0  0  0  0  0  0  0  0  0  0
    2.1440   -0.2310    3.2350 H   0  0  0  0  0  0  0  0  0  0  0  0
    3.1000   -0.4430   -0.1120 C   0  0  1  0  0  0  0  0  0  0  0  0
    4.2900   -0.2800   -0.3560 O   0  0  0  0  0  0  0  0  0  0  0  0
    2.2900   -1.3060   -0.7860 N   0  0  0  0  0  0  0  0  0  0  0  0
    1.2960   -1.2750   -0.6040 H   0  0  0  0  0  0  0  0  0  0  0  0
    2.7150   -1.9400   -2.0210 C   0  0  1  0  0  0  0  0  0  0  0  0
    3.7850   -1.7650   -2.1330 H   0  0  0  0  0  0  0  0  0  0  0  0
    2.5280   -3.0200   -1.9860 H   0  0  0  0  0  0  0  0  0  0  0  0
    2.1850   -1.5180   -2.8820 H   0  0  0  0  0  0  0  0  0  0  0  0
  2  1  1  1
  2  5  1  0
  2  4  1  0
  2  3  1  0
  5  7  1  0
  5  6  1  0
  7  9  1  0
  7  8  1  0
  9 11  1  0
  9 10  1  6
  9 15  1  0
 11 13  1  0
 11 14  1  0
 11 12  1  0
 15 16  2  0
 15 17  1  0
 17 19  1  0
 17 18  1  0
 19 20  1  6
 19 26  1  0
 19 21  1  0
 21 24  1  0
 21 23  1  1
 21 22  1  0
 24 25  1  0
 26 27  1  1
 26 28  1  0
 28 30  1  0
 28 29  1  0
 30 36  1  0
 30 31  1  1
 30 32  1  0
 32 33  1  6
 32 34  1  0
 32 35  1  0
 36 38  1  0
 36 37  1  1
 38 40  1  0
 38 39  1  0
 40 43  1  6
 40 41  1  0
 40 42  1  0
M  END
$$$$
