-25.09945984
     RDKit          3D

 14 13  0  0  1  0  0  0  0  0999 V2000
   -0.3245   -1.9566    0.4613 N   0  0  0  0  0  0  0  0  0  0  0  0
   -0.3632   -0.7030   -0.2639 C   0  0  2  0  0  0  0  0  0  0  0  0
    0.9192    0.1226   -0.1848 C   0  0  0  0  0  0  0  0  0  0  0  0
    1.4218    0.7016   -1.1087 O   0  0  0  0  0  0  0  0  0  0  0  0
    1.4368    0.1298    1.0493 O   0  0  0  0  0  0  0  0  0  0  0  0
   -1.5196    0.1574    0.2913 C   0  0  1  0  0  0  0  0  0  0  0  0
   -1.6277    1.4094   -0.3247 O   0  0  0  0  0  0  0  0  0  0  0  0
   -0.5500   -0.9167   -1.3237 H   0  0  0  0  0  0  0  0  0  0  0  0
   -2.4466   -0.4244    0.1961 H   0  0  0  0  0  0  0  0  0  0  0  0
   -1.3421    0.3592    1.3508 H   0  0  0  0  0  0  0  0  0  0  0  0
   -0.1247   -1.7842    1.4410 H   0  0  0  0  0  0  0  0  0  0  0  0
    0.4054   -2.5581    0.0955 H   0  0  0  0  0  0  0  0  0  0  0  0
   -1.7130    1.2916   -1.2778 H   0  0  0  0  0  0  0  0  0  0  0  0
    2.2252    0.6938    1.0804 H   0  0  0  0  0  0  0  0  0  0  0  0
  1 11  1  0
  2  8  1  6
  2  3  1  0
  2  6  1  0
  2  1  1  0
  3  5  1  0
  4  3  2  0
  5 14  1  0
  6 10  1  1
  7  6  1  0
  9  6  1  0
 12  1  1  0
 13  7  1  0
M  END
$$$$
