-25.09879602
     RDKit          3D

 14 13  0  0  1  0  0  0  0  0999 V2000
   -0.2321   -1.8138   -0.8500 N   0  0  0  0  0  0  0  0  0  0  0  0
   -0.3730   -0.3949   -0.5794 C   0  0  2  0  0  0  0  0  0  0  0  0
    0.9403    0.0860    0.0179 C   0  0  0  0  0  0  0  0  0  0  0  0
    1.4012   -0.3175    1.0523 O   0  0  0  0  0  0  0  0  0  0  0  0
    1.5212    1.0314   -0.7176 O   0  0  0  0  0  0  0  0  0  0  0  0
   -1.5168   -0.0679    0.4173 C   0  0  1  0  0  0  0  0  0  0  0  0
   -1.7562    1.3062    0.5557 O   0  0  0  0  0  0  0  0  0  0  0  0
   -0.5489    0.1334   -1.5217 H   0  0  0  0  0  0  0  0  0  0  0  0
   -2.4497   -0.4929    0.0361 H   0  0  0  0  0  0  0  0  0  0  0  0
   -1.2821   -0.5342    1.3854 H   0  0  0  0  0  0  0  0  0  0  0  0
    0.0594   -2.2974   -0.0061 H   0  0  0  0  0  0  0  0  0  0  0  0
   -1.1174   -2.2048   -1.1527 H   0  0  0  0  0  0  0  0  0  0  0  0
   -1.0016    1.7224    0.9861 H   0  0  0  0  0  0  0  0  0  0  0  0
    2.3691    1.3038   -0.3290 H   0  0  0  0  0  0  0  0  0  0  0  0
  1  2  1  0
  1 11  1  0
  2  8  1  6
  2  3  1  0
  2  6  1  0
  3  4  2  0
  5 14  1  0
  5  3  1  0
  6  7  1  0
  6 10  1  1
  7 13  1  0
  9  6  1  0
 12  1  1  0
M  END
$$$$
