-25.10251627
     RDKit          3D

 14 13  0  0  1  0  0  0  0  0999 V2000
   -0.5430   -1.4262   -0.9960 N   0  0  0  0  0  0  0  0  0  0  0  0
   -0.2820   -0.0086   -0.8163 C   0  0  2  0  0  0  0  0  0  0  0  0
    0.9728    0.1306    0.0289 C   0  0  0  0  0  0  0  0  0  0  0  0
    1.0344   -0.1577    1.1983 O   0  0  0  0  0  0  0  0  0  0  0  0
    1.9963    0.6387   -0.6453 O   0  0  0  0  0  0  0  0  0  0  0  0
   -1.4271    0.7370   -0.0771 C   0  0  1  0  0  0  0  0  0  0  0  0
   -1.7613    0.1072    1.1256 O   0  0  0  0  0  0  0  0  0  0  0  0
   -0.1029    0.4480   -1.7936 H   0  0  0  0  0  0  0  0  0  0  0  0
   -1.1340    1.7857    0.0856 H   0  0  0  0  0  0  0  0  0  0  0  0
   -2.3296    0.7194   -0.6948 H   0  0  0  0  0  0  0  0  0  0  0  0
   -1.3723   -1.5522   -1.5669 H   0  0  0  0  0  0  0  0  0  0  0  0
   -0.7300   -1.8492   -0.0907 H   0  0  0  0  0  0  0  0  0  0  0  0
   -0.9469   -0.0096    1.6411 H   0  0  0  0  0  0  0  0  0  0  0  0
    2.7867    0.7040   -0.0832 H   0  0  0  0  0  0  0  0  0  0  0  0
  1  2  1  0
  1 12  1  0
  2  8  1  6
  2  6  1  0
  2  3  1  0
  3  4  2  0
  5 14  1  0
  5  3  1  0
  6  9  1  1
  6  7  1  0
  7 13  1  0
 10  6  1  0
 11  1  1  0
M  END
$$$$
