-25.10138002
     RDKit          3D

 14 13  0  0  1  0  0  0  0  0999 V2000
   -0.3935   -1.9546   -0.5519 N   0  0  0  0  0  0  0  0  0  0  0  0
   -0.3513   -0.5075   -0.5450 C   0  0  2  0  0  0  0  0  0  0  0  0
    0.9482    0.0560    0.0196 C   0  0  0  0  0  0  0  0  0  0  0  0
    1.6609   -0.5294    0.7906 O   0  0  0  0  0  0  0  0  0  0  0  0
    1.2054    1.2828   -0.4363 O   0  0  0  0  0  0  0  0  0  0  0  0
   -1.5154    0.0187    0.3275 C   0  0  1  0  0  0  0  0  0  0  0  0
   -1.5914    1.4144    0.3771 O   0  0  0  0  0  0  0  0  0  0  0  0
   -0.4770   -0.1374   -1.5692 H   0  0  0  0  0  0  0  0  0  0  0  0
   -2.4432   -0.4270   -0.0555 H   0  0  0  0  0  0  0  0  0  0  0  0
   -1.3707   -0.3123    1.3591 H   0  0  0  0  0  0  0  0  0  0  0  0
   -0.1910   -2.2996    0.3818 H   0  0  0  0  0  0  0  0  0  0  0  0
    0.3239   -2.3252   -1.1666 H   0  0  0  0  0  0  0  0  0  0  0  0
   -1.6647    1.7616   -0.5194 H   0  0  0  0  0  0  0  0  0  0  0  0
    1.9982    1.6491   -0.0124 H   0  0  0  0  0  0  0  0  0  0  0  0
  1  2  1  0
  1 11  1  0
  2  8  1  6
  2  3  1  0
  2  6  1  0
  3  4  2  0
  5 14  1  0
  5  3  1  0
  6  7  1  0
  6 10  1  1
  9  6  1  0
 12  1  1  0
 13  7  1  0
M  END
$$$$
