-25.10123714
     RDKit          3D

 14 13  0  0  1  0  0  0  0  0999 V2000
   -0.5183   -1.3040   -1.1082 N   0  0  0  0  0  0  0  0  0  0  0  0
   -0.2718    0.1038   -0.8158 C   0  0  2  0  0  0  0  0  0  0  0  0
    1.0049    0.1790    0.0477 C   0  0  0  0  0  0  0  0  0  0  0  0
    1.2674    1.1177    0.7467 O   0  0  0  0  0  0  0  0  0  0  0  0
    1.7695   -0.8967   -0.0578 O   0  0  0  0  0  0  0  0  0  0  0  0
   -1.4345    0.8030   -0.0836 C   0  0  1  0  0  0  0  0  0  0  0  0
   -1.7143    0.1718    1.1402 O   0  0  0  0  0  0  0  0  0  0  0  0
   -0.0588    0.6384   -1.7483 H   0  0  0  0  0  0  0  0  0  0  0  0
   -1.1863    1.8605    0.0569 H   0  0  0  0  0  0  0  0  0  0  0  0
   -2.3476    0.7255   -0.6806 H   0  0  0  0  0  0  0  0  0  0  0  0
   -1.1062   -1.4127   -1.9262 H   0  0  0  0  0  0  0  0  0  0  0  0
   -1.0185   -1.7111   -0.3201 H   0  0  0  0  0  0  0  0  0  0  0  0
   -1.0096    0.3901    1.7618 H   0  0  0  0  0  0  0  0  0  0  0  0
    1.2930   -1.5438   -0.6271 H   0  0  0  0  0  0  0  0  0  0  0  0
  1  2  1  0
  1 12  1  0
  2  8  1  6
  2  6  1  0
  2  3  1  0
  3  4  2  0
  5  3  1  0
  6  9  1  1
  6  7  1  0
  7 13  1  0
 10  6  1  0
 11  1  1  0
 14  5  1  0
M  END
$$$$
