-31.32948552
     RDKit          3D

 16 15  0  0  1  0  0  0  0  0999 V2000
   -0.8629    1.6542    0.8823 N   0  0  0  0  0  0  0  0  0  0  0  0
   -0.7437    0.9866   -0.3866 C   0  0  2  0  0  0  0  0  0  0  0  0
   -1.3610   -0.4051   -0.3136 C   0  0  0  0  0  0  0  0  0  0  0  0
   -2.0601   -0.8845   -1.1621 O   0  0  0  0  0  0  0  0  0  0  0  0
   -1.0004   -1.0645    0.7884 O   0  0  0  0  0  0  0  0  0  0  0  0
    0.7179    0.8138   -0.9158 C   0  0  2  0  0  0  0  0  0  0  0  0
    1.5231    0.0180    0.0764 C   0  0  0  0  0  0  0  0  0  0  0  0
    1.8472    0.4041    1.1684 O   0  0  0  0  0  0  0  0  0  0  0  0
    1.8266   -1.2011   -0.3794 O   0  0  0  0  0  0  0  0  0  0  0  0
   -1.3060    1.5528   -1.1374 H   0  0  0  0  0  0  0  0  0  0  0  0
    1.1609    1.8056   -1.0194 H   0  0  0  0  0  0  0  0  0  0  0  0
    0.7067    0.3050   -1.8783 H   0  0  0  0  0  0  0  0  0  0  0  0
   -0.4799    2.5912    0.8305 H   0  0  0  0  0  0  0  0  0  0  0  0
   -0.3562    1.1498    1.6027 H   0  0  0  0  0  0  0  0  0  0  0  0
   -1.4121   -1.9434    0.8053 H   0  0  0  0  0  0  0  0  0  0  0  0
    2.3177   -1.7034    0.2902 H   0  0  0  0  0  0  0  0  0  0  0  0
  1 14  1  0
  2 10  1  6
  2  3  1  0
  2  1  1  0
  3  5  1  0
  4  3  2  0
  5 15  1  0
  6  2  1  0
  6  7  1  0
  7  8  2  0
  9  7  1  0
  9 16  1  0
  6 11  1  6
 12  6  1  0
 13  1  1  0
M  END
$$$$
