-31.32936223
     RDKit          3D

 16 15  0  0  1  0  0  0  0  0999 V2000
   -0.6845    1.9181    0.2844 N   0  0  0  0  0  0  0  0  0  0  0  0
   -0.6369    0.8280   -0.6653 C   0  0  2  0  0  0  0  0  0  0  0  0
   -1.3395   -0.4606   -0.2273 C   0  0  0  0  0  0  0  0  0  0  0  0
   -1.2217   -1.5228   -0.7760 O   0  0  0  0  0  0  0  0  0  0  0  0
   -2.1452   -0.2709    0.8224 O   0  0  0  0  0  0  0  0  0  0  0  0
    0.8109    0.5028   -1.0511 C   0  0  2  0  0  0  0  0  0  0  0  0
    1.6362   -0.1024    0.0577 C   0  0  0  0  0  0  0  0  0  0  0  0
    2.8202   -0.2855   -0.0007 O   0  0  0  0  0  0  0  0  0  0  0  0
    0.9182   -0.4397    1.1408 O   0  0  0  0  0  0  0  0  0  0  0  0
   -1.1572    1.1602   -1.5751 H   0  0  0  0  0  0  0  0  0  0  0  0
    1.3142    1.4083   -1.3912 H   0  0  0  0  0  0  0  0  0  0  0  0
    0.8138   -0.2185   -1.8716 H   0  0  0  0  0  0  0  0  0  0  0  0
   -0.2359    1.6420    1.1513 H   0  0  0  0  0  0  0  0  0  0  0  0
   -1.6460    2.1539    0.5025 H   0  0  0  0  0  0  0  0  0  0  0  0
   -2.5734   -1.1046    1.0715 H   0  0  0  0  0  0  0  0  0  0  0  0
    1.4918   -0.8622    1.8000 H   0  0  0  0  0  0  0  0  0  0  0  0
  1 14  1  0
  1 13  1  0
  2 10  1  6
  2  3  1  0
  2  1  1  0
  3  5  1  0
  4  3  2  0
  5 15  1  0
  6  2  1  0
  6  7  1  0
  7  9  1  0
  8  7  2  0
  9 16  1  0
  6 11  1  6
 12  6  1  0
M  END
$$$$
