-31.33121590
     RDKit          3D

 16 15  0  0  1  0  0  0  0  0999 V2000
   -0.9067    1.8984    0.3512 N   0  0  0  0  0  0  0  0  0  0  0  0
   -0.6833    0.8726   -0.6398 C   0  0  2  0  0  0  0  0  0  0  0  0
   -1.2564   -0.4926   -0.2510 C   0  0  0  0  0  0  0  0  0  0  0  0
   -1.7096   -0.7610    0.8286 O   0  0  0  0  0  0  0  0  0  0  0  0
   -1.2095   -1.3633   -1.2625 O   0  0  0  0  0  0  0  0  0  0  0  0
    0.8269    0.7073   -0.9116 C   0  0  2  0  0  0  0  0  0  0  0  0
    1.4761    0.0751    0.2964 C   0  0  0  0  0  0  0  0  0  0  0  0
    1.6417    0.6125    1.3578 O   0  0  0  0  0  0  0  0  0  0  0  0
    1.8254   -1.1952    0.0696 O   0  0  0  0  0  0  0  0  0  0  0  0
   -1.1737    1.1756   -1.5748 H   0  0  0  0  0  0  0  0  0  0  0  0
    1.2478    1.7001   -1.0688 H   0  0  0  0  0  0  0  0  0  0  0  0
    0.9846    0.0742   -1.7826 H   0  0  0  0  0  0  0  0  0  0  0  0
   -0.2798    1.7639    1.1399 H   0  0  0  0  0  0  0  0  0  0  0  0
   -1.8549    1.8415    0.7079 H   0  0  0  0  0  0  0  0  0  0  0  0
   -1.5652   -2.2250   -0.9918 H   0  0  0  0  0  0  0  0  0  0  0  0
    2.2120   -1.5922    0.8669 H   0  0  0  0  0  0  0  0  0  0  0  0
  1 14  1  0
  1 13  1  0
  2 10  1  6
  2  3  1  0
  2  1  1  0
  3  4  2  0
  5 15  1  0
  5  3  1  0
  6  2  1  0
  6  7  1  0
  7  8  2  0
  9  7  1  0
  9 16  1  0
  6 11  1  6
 12  6  1  0
M  END
$$$$
