-31.32530869
     RDKit          3D

 16 15  0  0  1  0  0  0  0  0999 V2000
   -0.6266    1.6097    0.6897 N   0  0  0  0  0  0  0  0  0  0  0  0
   -0.6647    0.8326   -0.5304 C   0  0  2  0  0  0  0  0  0  0  0  0
   -1.3626   -0.5079   -0.3267 C   0  0  0  0  0  0  0  0  0  0  0  0
   -1.2925   -1.4198   -1.1052 O   0  0  0  0  0  0  0  0  0  0  0  0
   -2.1248   -0.5464    0.7652 O   0  0  0  0  0  0  0  0  0  0  0  0
    0.7661    0.5805   -1.0290 C   0  0  2  0  0  0  0  0  0  0  0  0
    1.6416    0.0702    0.0931 C   0  0  0  0  0  0  0  0  0  0  0  0
    2.7439    0.4753    0.3405 O   0  0  0  0  0  0  0  0  0  0  0  0
    1.0625   -0.9163    0.7803 O   0  0  0  0  0  0  0  0  0  0  0  0
   -1.2293    1.3192   -1.3532 H   0  0  0  0  0  0  0  0  0  0  0  0
    1.2110    1.4937   -1.4226 H   0  0  0  0  0  0  0  0  0  0  0  0
    0.7345   -0.1776   -1.8143 H   0  0  0  0  0  0  0  0  0  0  0  0
   -1.5422    1.6672    1.1173 H   0  0  0  0  0  0  0  0  0  0  0  0
   -0.2839    2.5455    0.5088 H   0  0  0  0  0  0  0  0  0  0  0  0
   -2.5343   -1.4220    0.8521 H   0  0  0  0  0  0  0  0  0  0  0  0
    1.6424   -1.2075    1.5017 H   0  0  0  0  0  0  0  0  0  0  0  0
  1 13  1  0
  2 10  1  6
  2  3  1  0
  2  1  1  0
  3  5  1  0
  4  3  2  0
  5 15  1  0
  6  2  1  0
  6  7  1  0
  7  8  2  0
  7  9  1  0
  9 16  1  0
  6 11  1  6
 12  6  1  0
 14  1  1  0
M  END
$$$$
