-31.33114009
     RDKit          3D

 16 15  0  0  1  0  0  0  0  0999 V2000
   -1.3030    1.9488   -0.8181 N   0  0  0  0  0  0  0  0  0  0  0  0
   -0.5184    0.7289   -0.7114 C   0  0  2  0  0  0  0  0  0  0  0  0
   -1.2812   -0.3474    0.0643 C   0  0  0  0  0  0  0  0  0  0  0  0
   -1.4839   -0.3061    1.2497 O   0  0  0  0  0  0  0  0  0  0  0  0
   -1.7942   -1.2788   -0.7362 O   0  0  0  0  0  0  0  0  0  0  0  0
    0.7897    1.0271    0.0238 C   0  0  2  0  0  0  0  0  0  0  0  0
    1.6005   -0.2281    0.2038 C   0  0  0  0  0  0  0  0  0  0  0  0
    1.2028   -1.3444    0.0030 O   0  0  0  0  0  0  0  0  0  0  0  0
    2.8380    0.0318    0.6347 O   0  0  0  0  0  0  0  0  0  0  0  0
   -0.3163    0.3536   -1.7184 H   0  0  0  0  0  0  0  0  0  0  0  0
    0.5616    1.4149    1.0204 H   0  0  0  0  0  0  0  0  0  0  0  0
    1.3705    1.7802   -0.5067 H   0  0  0  0  0  0  0  0  0  0  0  0
   -1.5788    2.2623    0.1078 H   0  0  0  0  0  0  0  0  0  0  0  0
   -2.1453    1.7834   -1.3579 H   0  0  0  0  0  0  0  0  0  0  0  0
   -2.2610   -1.9565   -0.2211 H   0  0  0  0  0  0  0  0  0  0  0  0
    3.3327   -0.7925    0.7687 H   0  0  0  0  0  0  0  0  0  0  0  0
  1  2  1  0
  1 13  1  0
  2 10  1  6
  2  6  1  0
  2  3  1  0
  3  4  2  0
  5 15  1  0
  5  3  1  0
  6  7  1  0
  6 11  1  1
  7  9  1  0
  8  7  2  0
  9 16  1  0
 12  6  1  0
 14  1  1  0
M  END
$$$$
