-31.33104194
     RDKit          3D

 16 15  0  0  1  0  0  0  0  0999 V2000
   -1.2167    2.1276   -0.5211 N   0  0  0  0  0  0  0  0  0  0  0  0
   -0.4785    0.8846   -0.5378 C   0  0  2  0  0  0  0  0  0  0  0  0
   -1.3297   -0.3191   -0.1312 C   0  0  0  0  0  0  0  0  0  0  0  0
   -2.3968   -0.2375    0.4144 O   0  0  0  0  0  0  0  0  0  0  0  0
   -0.7496   -1.4784   -0.4469 O   0  0  0  0  0  0  0  0  0  0  0  0
    0.7053    0.9836    0.4464 C   0  0  2  0  0  0  0  0  0  0  0  0
    1.5739   -0.2494    0.3851 C   0  0  0  0  0  0  0  0  0  0  0  0
    1.7485   -1.0206    1.2880 O   0  0  0  0  0  0  0  0  0  0  0  0
    2.1517   -0.3914   -0.8113 O   0  0  0  0  0  0  0  0  0  0  0  0
   -0.0841    0.7107   -1.5442 H   0  0  0  0  0  0  0  0  0  0  0  0
    0.3350    1.1093    1.4643 H   0  0  0  0  0  0  0  0  0  0  0  0
    1.2957    1.8554    0.1639 H   0  0  0  0  0  0  0  0  0  0  0  0
   -1.9344    2.1233   -1.2375 H   0  0  0  0  0  0  0  0  0  0  0  0
   -1.6885    2.2298    0.3729 H   0  0  0  0  0  0  0  0  0  0  0  0
   -1.2784   -2.2283   -0.1283 H   0  0  0  0  0  0  0  0  0  0  0  0
    2.6833   -1.2023   -0.8366 H   0  0  0  0  0  0  0  0  0  0  0  0
  1 14  1  0
  2 10  1  6
  2  1  1  0
  2  3  1  0
  2  6  1  0
  3  4  2  0
  5  3  1  0
  5 15  1  0
  6 11  1  1
  7  6  1  0
  7  8  2  0
  9  7  1  0
 12  6  1  0
 13  1  1  0
 16  9  1  0
M  END
$$$$
