-31.33053803
     RDKit          3D

 16 15  0  0  1  0  0  0  0  0999 V2000
   -0.7473    1.5746    0.4355 N   0  0  0  0  0  0  0  0  0  0  0  0
   -0.4878    0.3678   -0.3000 C   0  0  2  0  0  0  0  0  0  0  0  0
   -1.7709   -0.4441   -0.4023 C   0  0  0  0  0  0  0  0  0  0  0  0
   -2.5986   -0.5221    0.4623 O   0  0  0  0  0  0  0  0  0  0  0  0
   -1.8519   -1.1072   -1.5561 O   0  0  0  0  0  0  0  0  0  0  0  0
    0.5658   -0.5881    0.3514 C   0  0  2  0  0  0  0  0  0  0  0  0
    1.8917    0.1188    0.4100 C   0  0  0  0  0  0  0  0  0  0  0  0
    2.1202    1.1054    1.0603 O   0  0  0  0  0  0  0  0  0  0  0  0
    2.8025   -0.4495   -0.3839 O   0  0  0  0  0  0  0  0  0  0  0  0
   -0.1497    0.6222   -1.3110 H   0  0  0  0  0  0  0  0  0  0  0  0
    0.6643   -1.4996   -0.2361 H   0  0  0  0  0  0  0  0  0  0  0  0
    0.2346   -0.8232    1.3647 H   0  0  0  0  0  0  0  0  0  0  0  0
   -1.3219    1.3681    1.2469 H   0  0  0  0  0  0  0  0  0  0  0  0
    0.1192    1.9977    0.7529 H   0  0  0  0  0  0  0  0  0  0  0  0
   -2.6675   -1.6333   -1.5932 H   0  0  0  0  0  0  0  0  0  0  0  0
    3.6407    0.0393   -0.3529 H   0  0  0  0  0  0  0  0  0  0  0  0
  1 14  1  0
  1 13  1  0
  2 10  1  6
  2  6  1  0
  2  1  1  0
  3  2  1  0
  3  4  2  0
  5  3  1  0
  6  7  1  0
  6 12  1  1
  7  8  2  0
  9 16  1  0
  9  7  1  0
 11  6  1  0
 15  5  1  0
M  END
$$$$
