-25.09834713
     RDKit          3D

 14 13  0  0  1  0  0  0  0  0999 V2000
   -0.7339   -1.5293    0.3807 N   0  0  0  0  0  0  0  0  0  0  0  0
   -0.2186   -0.5897   -0.6186 C   0  0  2  0  0  0  0  0  0  0  0  0
    1.0822    0.0089   -0.0458 C   0  0  0  0  0  0  0  0  0  0  0  0
    2.1563   -0.4307   -0.3472 O   0  0  0  0  0  0  0  0  0  0  0  0
    0.9285    0.9976    0.8197 O   0  0  0  0  0  0  0  0  0  0  0  0
   -1.3039    0.4790   -0.8248 C   0  0  1  0  0  0  0  0  0  0  0  0
   -1.7086    1.0046    0.4220 O   0  0  0  0  0  0  0  0  0  0  0  0
    0.0355   -1.0608   -1.5802 H   0  0  0  0  0  0  0  0  0  0  0  0
   -0.9268    1.3139   -1.4190 H   0  0  0  0  0  0  0  0  0  0  0  0
   -2.1623    0.0358   -1.3466 H   0  0  0  0  0  0  0  0  0  0  0  0
    0.0166   -2.1051    0.7464 H   0  0  0  0  0  0  0  0  0  0  0  0
   -1.4195   -2.1497   -0.0391 H   0  0  0  0  0  0  0  0  0  0  0  0
   -1.9218    0.2400    0.9809 H   0  0  0  0  0  0  0  0  0  0  0  0
   -0.0214    1.2475    0.9142 H   0  0  0  0  0  0  0  0  0  0  0  0
  1 11  1  0
  2  8  1  6
  2  3  1  0
  2  1  1  0
  3  5  1  0
  4  3  2  0
  5 14  1  0
  6  2  1  0
  6  7  1  0
  7 13  1  0
  6  9  1  6
 10  6  1  0
 12  1  1  0
M  END
$$$$
