-25.09617615
     RDKit          3D

 14 13  0  0  1  0  0  0  0  0999 V2000
   -0.3457   -1.8542    0.6849 N   0  0  0  0  0  0  0  0  0  0  0  0
   -0.4033   -0.6823   -0.1741 C   0  0  2  0  0  0  0  0  0  0  0  0
    0.9346    0.0523   -0.2038 C   0  0  0  0  0  0  0  0  0  0  0  0
    1.7059    0.0491   -1.1234 O   0  0  0  0  0  0  0  0  0  0  0  0
    1.2147    0.6397    0.9685 O   0  0  0  0  0  0  0  0  0  0  0  0
   -1.5173    0.2510    0.3101 C   0  0  1  0  0  0  0  0  0  0  0  0
   -1.6036    1.3342   -0.5855 O   0  0  0  0  0  0  0  0  0  0  0  0
   -0.6256   -1.0047   -1.1957 H   0  0  0  0  0  0  0  0  0  0  0  0
   -2.4527   -0.3224    0.3409 H   0  0  0  0  0  0  0  0  0  0  0  0
   -1.2811    0.5980    1.3256 H   0  0  0  0  0  0  0  0  0  0  0  0
   -0.0882   -1.5808    1.6282 H   0  0  0  0  0  0  0  0  0  0  0  0
    0.3517   -2.5061    0.3427 H   0  0  0  0  0  0  0  0  0  0  0  0
   -2.3324    1.9043   -0.3199 H   0  0  0  0  0  0  0  0  0  0  0  0
    2.0766    1.0827    0.9209 H   0  0  0  0  0  0  0  0  0  0  0  0
  1 11  1  0
  2  8  1  6
  2  6  1  0
  2  1  1  0
  3  2  1  0
  3  5  1  0
  4  3  2  0
  6  9  1  1
  6 10  1  0
  7 13  1  0
  7  6  1  0
 12  1  1  0
 14  5  1  0
M  END
$$$$
