-25.09558009
     RDKit          3D

 14 13  0  0  1  0  0  0  0  0999 V2000
   -0.5967   -1.4047    0.7064 N   0  0  0  0  0  0  0  0  0  0  0  0
   -0.2701   -0.3987   -0.2861 C   0  0  2  0  0  0  0  0  0  0  0  0
    1.1917    0.0011   -0.1449 C   0  0  0  0  0  0  0  0  0  0  0  0
    1.9933   -0.0319   -1.0403 O   0  0  0  0  0  0  0  0  0  0  0  0
    1.4887    0.4133    1.0826 O   0  0  0  0  0  0  0  0  0  0  0  0
   -1.1599    0.8354   -0.0421 C   0  0  1  0  0  0  0  0  0  0  0  0
   -2.5085    0.5648   -0.3173 O   0  0  0  0  0  0  0  0  0  0  0  0
   -0.4096   -0.7367   -1.3316 H   0  0  0  0  0  0  0  0  0  0  0  0
   -1.1111    1.0915    1.0174 H   0  0  0  0  0  0  0  0  0  0  0  0
   -0.7938    1.6805   -0.6400 H   0  0  0  0  0  0  0  0  0  0  0  0
   -0.2237   -2.3120    0.4545 H   0  0  0  0  0  0  0  0  0  0  0  0
   -1.6040   -1.4752    0.7991 H   0  0  0  0  0  0  0  0  0  0  0  0
   -2.6118    0.3965   -1.2612 H   0  0  0  0  0  0  0  0  0  0  0  0
    2.4314    0.6378    1.1479 H   0  0  0  0  0  0  0  0  0  0  0  0
  1 12  1  0
  2  8  1  6
  2  3  1  0
  2  6  1  0
  2  1  1  0
  3  5  1  0
  4  3  2  0
  5 14  1  0
  6  9  1  1
  7  6  1  0
 10  6  1  0
 11  1  1  0
 13  7  1  0
M  END
$$$$
