-25.10185721
     RDKit          3D

 14 13  0  0  1  0  0  0  0  0999 V2000
   -0.6565   -1.6467   -0.5576 N   0  0  0  0  0  0  0  0  0  0  0  0
   -0.2270   -0.2763   -0.7826 C   0  0  2  0  0  0  0  0  0  0  0  0
    1.0164    0.0695    0.0276 C   0  0  0  0  0  0  0  0  0  0  0  0
    1.4875   -0.6447    0.8719 O   0  0  0  0  0  0  0  0  0  0  0  0
    1.5260    1.2578   -0.2984 O   0  0  0  0  0  0  0  0  0  0  0  0
   -1.3740    0.6866   -0.3845 C   0  0  1  0  0  0  0  0  0  0  0  0
   -1.7715    0.5304    0.9470 O   0  0  0  0  0  0  0  0  0  0  0  0
   -0.0118   -0.1103   -1.8418 H   0  0  0  0  0  0  0  0  0  0  0  0
   -1.0392    1.7201   -0.4923 H   0  0  0  0  0  0  0  0  0  0  0  0
   -2.2148    0.5042   -1.0667 H   0  0  0  0  0  0  0  0  0  0  0  0
   -0.4445   -1.8971    0.4062 H   0  0  0  0  0  0  0  0  0  0  0  0
   -0.1313   -2.2877   -1.1411 H   0  0  0  0  0  0  0  0  0  0  0  0
   -2.0709   -0.3800    1.0593 H   0  0  0  0  0  0  0  0  0  0  0  0
    2.2867    1.4678    0.2673 H   0  0  0  0  0  0  0  0  0  0  0  0
  1 11  1  0
  2  8  1  6
  2  1  1  0
  2  6  1  0
  2  3  1  0
  3  4  2  0
  5  3  1  0
  5 14  1  0
  6  7  1  0
  7 13  1  0
  6  9  1  1
 10  6  1  0
 12  1  1  0
M  END
$$$$
