-25.09966602
     RDKit          3D

 14 13  0  0  1  0  0  0  0  0999 V2000
   -0.7087   -1.6825    0.1255 N   0  0  0  0  0  0  0  0  0  0  0  0
   -0.2191   -0.5509   -0.6404 C   0  0  2  0  0  0  0  0  0  0  0  0
    1.0407    0.1103   -0.0924 C   0  0  0  0  0  0  0  0  0  0  0  0
    1.7317    0.8725   -0.7119 O   0  0  0  0  0  0  0  0  0  0  0  0
    1.2934   -0.2308    1.1773 O   0  0  0  0  0  0  0  0  0  0  0  0
   -1.3249    0.5350   -0.7142 C   0  0  1  0  0  0  0  0  0  0  0  0
   -1.7736    0.9375    0.5486 O   0  0  0  0  0  0  0  0  0  0  0  0
   -0.0090   -0.8685   -1.6664 H   0  0  0  0  0  0  0  0  0  0  0  0
   -0.9224    1.4249   -1.2021 H   0  0  0  0  0  0  0  0  0  0  0  0
   -2.1523    0.1353   -1.3135 H   0  0  0  0  0  0  0  0  0  0  0  0
   -0.6930   -1.4543    1.1152 H   0  0  0  0  0  0  0  0  0  0  0  0
   -0.1060   -2.4871   -0.0023 H   0  0  0  0  0  0  0  0  0  0  0  0
   -2.2012    0.1809    0.9669 H   0  0  0  0  0  0  0  0  0  0  0  0
    2.0652    0.2546    1.5072 H   0  0  0  0  0  0  0  0  0  0  0  0
  1 11  1  0
  2  8  1  6
  2  3  1  0
  2  1  1  0
  3  5  1  0
  4  3  2  0
  5 14  1  0
  6  2  1  0
  6  7  1  0
  7 13  1  0
  6  9  1  6
 10  6  1  0
 12  1  1  0
M  END
$$$$
