 energy: -47.854785957510 gnorm: 0.000041828343 xtb: 6.5.1 (9af7eec)
     RDKit          3D

 32 32  0  0  0  0  0  0  0  0999 V2000
    0.0275   -0.2832   -0.3070 N   0  0  0  0  0  0  0  0  0  0  0  0
    0.8270   -1.3075   -0.9268 C   0  0  2  0  0  0  0  0  0  0  0  0
    2.2599   -0.7781   -0.9954 C   0  0  0  0  0  0  0  0  0  0  0  0
    2.5224    0.3902   -0.7944 O   0  0  0  0  0  0  0  0  0  0  0  0
    0.3032   -1.6464   -2.3455 C   0  0  2  0  0  0  0  0  0  0  0  0
    0.3063   -0.4202   -3.2116 C   0  0  1  0  0  0  0  0  0  0  0  0
   -0.7965    0.4246   -3.2290 C   0  0  0  0  0  0  0  0  0  0  0  0
    1.4240   -0.0805   -3.9625 C   0  0  0  0  0  0  0  0  0  0  0  0
   -0.7798    1.5887   -3.9760 C   0  0  0  0  0  0  0  0  0  0  0  0
    1.4417    1.0825   -4.7110 C   0  0  0  0  0  0  0  0  0  0  0  0
    0.3412    1.9221   -4.7165 C   0  0  0  0  0  0  0  0  0  0  0  0
    0.4613    0.6311   -0.2882 H   0  0  0  0  0  0  0  0  0  0  0  0
    0.7792   -2.2157   -0.3117 H   0  0  0  0  0  0  0  0  0  0  0  0
   -0.7122   -2.0284   -2.2292 H   0  0  0  0  0  0  0  0  0  0  0  0
    0.9254   -2.4289   -2.7837 H   0  0  0  0  0  0  0  0  0  0  0  0
   -1.6738    0.1622   -2.6552 H   0  0  0  0  0  0  0  0  0  0  0  0
    2.2871   -0.7314   -3.9637 H   0  0  0  0  0  0  0  0  0  0  0  0
   -1.6439    2.2373   -3.9807 H   0  0  0  0  0  0  0  0  0  0  0  0
    2.3180    1.3359   -5.2897 H   0  0  0  0  0  0  0  0  0  0  0  0
    0.3564    2.8318   -5.2982 H   0  0  0  0  0  0  0  0  0  0  0  0
    3.1802   -1.7092   -1.3070 N   0  0  0  0  0  0  0  0  0  0  0  0
    2.8958   -2.6680   -1.4282 H   0  0  0  0  0  0  0  0  0  0  0  0
    4.5824   -1.4010   -1.4527 C   0  0  1  0  0  0  0  0  0  0  0  0
    4.9331   -1.6643   -2.4522 H   0  0  0  0  0  0  0  0  0  0  0  0
    4.6974   -0.3295   -1.2992 H   0  0  0  0  0  0  0  0  0  0  0  0
    5.1765   -1.9388   -0.7117 H   0  0  0  0  0  0  0  0  0  0  0  0
   -1.2115   -0.5027    0.1799 C   0  0  0  0  0  0  0  0  0  0  0  0
   -1.7435   -1.5934    0.1446 O   0  0  0  0  0  0  0  0  0  0  0  0
   -1.8551    0.7345    0.7691 C   0  0  2  0  0  0  0  0  0  0  0  0
   -2.8573    0.4925    1.1105 H   0  0  0  0  0  0  0  0  0  0  0  0
   -1.9055    1.5211    0.0197 H   0  0  0  0  0  0  0  0  0  0  0  0
   -1.2650    1.0927    1.6096 H   0  0  0  0  0  0  0  0  0  0  0  0
  1 12  1  0
  1 27  1  0
  1  2  1  0
  2  5  1  0
  2  3  1  0
  2 13  1  1
  3  4  1  0
  3 21  1  0
  5 14  1  1
  5 15  1  0
  5  6  1  0
  6  8  1  1
  6  7  1  0
  7 16  1  0
  7  9  1  0
  8 17  1  0
  8 10  1  0
  9 11  1  0
  9 18  1  0
 10 19  1  0
 10 11  1  0
 11 20  1  0
 21 23  1  0
 21 22  1  0
 23 25  1  1
 23 26  1  0
 23 24  1  0
 27 29  1  0
 27 28  1  0
 29 30  1  1
 29 31  1  0
 29 32  1  0
M  END
$$$$
