-50.00329431
     RDKit          3D

 33 34  0  0  0  0  0  0  0  0999 V2000
   -0.6323   -2.0611    0.1089 N   0  0  0  0  0  0  0  0  0  0  0  0
   -1.3882   -1.1414    0.7810 C   0  0  0  0  0  0  0  0  0  0  0  0
   -0.6428   -0.0319    1.0604 C   0  0  0  0  0  0  0  0  0  0  0  0
    0.6624   -0.2763    0.5317 C   0  0  0  0  0  0  0  0  0  0  0  0
    1.8436    0.4585    0.5033 C   0  0  0  0  0  0  0  0  0  0  0  0
    2.9624   -0.0886   -0.1044 C   0  0  0  0  0  0  0  0  0  0  0  0
    2.9110   -1.3635   -0.6851 C   0  0  0  0  0  0  0  0  0  0  0  0
    1.7484   -2.1076   -0.6668 C   0  0  0  0  0  0  0  0  0  0  0  0
    0.6285   -1.5638   -0.0592 C   0  0  0  0  0  0  0  0  0  0  0  0
   -0.9617   -2.9522   -0.2192 H   0  0  0  0  0  0  0  0  0  0  0  0
   -2.4206   -1.3400    0.9930 H   0  0  0  0  0  0  0  0  0  0  0  0
    1.9176    1.4392    0.9458 H   0  0  0  0  0  0  0  0  0  0  0  0
    3.7857   -1.7829   -1.1559 H   0  0  0  0  0  0  0  0  0  0  0  0
    1.7199   -3.0896   -1.1158 H   0  0  0  0  0  0  0  0  0  0  0  0
    4.0848    0.7016   -0.0883 O   0  0  0  0  0  0  0  0  0  0  0  0
    5.2699    0.2031   -0.6520 C   0  0  2  0  0  0  0  0  0  0  0  0
    5.1596    0.0084   -1.7245 H   0  0  0  0  0  0  0  0  0  0  0  0
    5.6046   -0.7113   -0.1500 H   0  0  0  0  0  0  0  0  0  0  0  0
    6.0157    0.9836   -0.5063 H   0  0  0  0  0  0  0  0  0  0  0  0
   -1.0844    1.2122    1.7651 C   0  0  2  0  0  0  0  0  0  0  0  0
   -2.5069    1.6272    1.3730 C   0  0  2  0  0  0  0  0  0  0  0  0
   -2.6485    1.7462   -0.0592 N   0  0  0  0  0  0  0  0  0  0  0  0
   -3.4004    0.8976   -0.7960 C   0  0  0  0  0  0  0  0  0  0  0  0
   -3.2613    1.1107   -2.2898 C   0  0  2  0  0  0  0  0  0  0  0  0
   -0.3897    2.0189    1.5192 H   0  0  0  0  0  0  0  0  0  0  0  0
   -1.0522    1.0683    2.8490 H   0  0  0  0  0  0  0  0  0  0  0  0
   -2.7575    2.5837    1.8452 H   0  0  0  0  0  0  0  0  0  0  0  0
   -3.2306    0.8760    1.6930 H   0  0  0  0  0  0  0  0  0  0  0  0
   -1.9966    2.3538   -0.5302 H   0  0  0  0  0  0  0  0  0  0  0  0
   -4.1304    0.0620   -0.3052 O   0  0  0  0  0  0  0  0  0  0  0  0
   -3.4560    2.1495   -2.5458 H   0  0  0  0  0  0  0  0  0  0  0  0
   -3.9677    0.4720   -2.8115 H   0  0  0  0  0  0  0  0  0  0  0  0
   -2.2504    0.8546   -2.6015 H   0  0  0  0  0  0  0  0  0  0  0  0
  1  2  1  0
  2 11  1  0
  2  3  2  0
  3 20  1  0
  4  3  1  0
  5  4  1  0
  5 12  1  0
  6 15  1  0
  6  5  2  0
  7  8  2  0
  7  6  1  0
  8  9  1  0
  9  1  1  0
  9  4  2  0
 10  1  1  0
 13  7  1  0
 14  8  1  0
 16 19  1  6
 16 18  1  0
 16 15  1  0
 17 16  1  0
 20 26  1  1
 21 28  1  1
 21 20  1  0
 21 27  1  0
 22 21  1  0
 23 30  2  0
 23 22  1  0
 24 23  1  0
 25 20  1  0
 29 22  1  0
 24 31  1  1
 32 24  1  0
 33 24  1  0
M  END
$$$$
