-50.00275247
     RDKit          3D

 33 34  0  0  0  0  0  0  0  0999 V2000
   -0.1996   -2.3571    0.9032 N   0  0  0  0  0  0  0  0  0  0  0  0
   -1.2632   -1.7086    0.3340 C   0  0  0  0  0  0  0  0  0  0  0  0
   -0.8272   -0.7108   -0.4888 C   0  0  0  0  0  0  0  0  0  0  0  0
    0.6017   -0.7341   -0.4294 C   0  0  0  0  0  0  0  0  0  0  0  0
    1.5989    0.0205   -1.0378 C   0  0  0  0  0  0  0  0  0  0  0  0
    2.9254   -0.2784   -0.7679 C   0  0  0  0  0  0  0  0  0  0  0  0
    3.2601   -1.3223    0.1068 C   0  0  0  0  0  0  0  0  0  0  0  0
    2.2835   -2.0812    0.7196 C   0  0  0  0  0  0  0  0  0  0  0  0
    0.9571   -1.7862    0.4490 C   0  0  0  0  0  0  0  0  0  0  0  0
   -0.2586   -3.1508    1.5170 H   0  0  0  0  0  0  0  0  0  0  0  0
   -2.2697   -2.0149    0.5501 H   0  0  0  0  0  0  0  0  0  0  0  0
    1.3691    0.8261   -1.7162 H   0  0  0  0  0  0  0  0  0  0  0  0
    4.2940   -1.5489    0.3121 H   0  0  0  0  0  0  0  0  0  0  0  0
    2.5536   -2.8845    1.3891 H   0  0  0  0  0  0  0  0  0  0  0  0
    3.8467    0.5083   -1.4081 O   0  0  0  0  0  0  0  0  0  0  0  0
    5.2129    0.2563   -1.2029 C   0  0  2  0  0  0  0  0  0  0  0  0
    5.7411    0.9870   -1.8141 H   0  0  0  0  0  0  0  0  0  0  0  0
    5.4925   -0.7520   -1.5270 H   0  0  0  0  0  0  0  0  0  0  0  0
    5.4980    0.3929   -0.1540 H   0  0  0  0  0  0  0  0  0  0  0  0
   -1.6631    0.2569   -1.2585 C   0  0  2  0  0  0  0  0  0  0  0  0
   -1.7597    1.6058   -0.5277 C   0  0  2  0  0  0  0  0  0  0  0  0
   -2.3829    1.4583    0.7660 N   0  0  0  0  0  0  0  0  0  0  0  0
   -3.6418    1.8780    1.0304 C   0  0  0  0  0  0  0  0  0  0  0  0
   -4.1247    1.4933    2.4163 C   0  0  2  0  0  0  0  0  0  0  0  0
   -2.6690   -0.1455   -1.3911 H   0  0  0  0  0  0  0  0  0  0  0  0
   -1.2226    0.4252   -2.2422 H   0  0  0  0  0  0  0  0  0  0  0  0
   -2.3793    2.3015   -1.0967 H   0  0  0  0  0  0  0  0  0  0  0  0
   -0.7589    2.0283   -0.3972 H   0  0  0  0  0  0  0  0  0  0  0  0
   -1.9130    0.8522    1.4204 H   0  0  0  0  0  0  0  0  0  0  0  0
   -4.3054    2.5184    0.2443 O   0  0  0  0  0  0  0  0  0  0  0  0
   -5.1172    1.9036    2.5761 H   0  0  0  0  0  0  0  0  0  0  0  0
   -3.4470    1.8847    3.1714 H   0  0  0  0  0  0  0  0  0  0  0  0
   -4.1661    0.4100    2.5092 H   0  0  0  0  0  0  0  0  0  0  0  0
  1 10  1  0
  2 11  1  0
  2  1  1  0
  3  4  1  0
  3  2  2  0
  4  9  2  0
  5  6  2  0
  5  4  1  0
  6  7  1  0
  7 13  1  0
  7  8  2  0
  8 14  1  0
  9  8  1  0
  9  1  1  0
 12  5  1  0
 15 16  1  0
 15  6  1  0
 16 19  1  1
 17 16  1  0
 18 16  1  0
 20 21  1  0
 20  3  1  0
 21 28  1  1
 21 22  1  0
 22 23  1  0
 22 29  1  0
 23 24  1  0
 24 33  1  6
 24 31  1  0
 24 32  1  0
 20 25  1  6
 26 20  1  0
 27 21  1  0
 30 23  2  0
M  END
$$$$
