-50.00611879
     RDKit          3D

 33 34  0  0  0  0  0  0  0  0999 V2000
   -0.8503   -2.4602    0.6579 N   0  0  0  0  0  0  0  0  0  0  0  0
   -1.7575   -1.9722   -0.2366 C   0  0  0  0  0  0  0  0  0  0  0  0
   -1.2042   -0.9575   -0.9644 C   0  0  0  0  0  0  0  0  0  0  0  0
    0.1272   -0.7920   -0.4788 C   0  0  0  0  0  0  0  0  0  0  0  0
    1.1713    0.0764   -0.8154 C   0  0  0  0  0  0  0  0  0  0  0  0
    2.3568   -0.0201   -0.1157 C   0  0  0  0  0  0  0  0  0  0  0  0
    2.5147   -0.9715    0.9104 C   0  0  0  0  0  0  0  0  0  0  0  0
    1.5054   -1.8406    1.2466 C   0  0  0  0  0  0  0  0  0  0  0  0
    0.3082   -1.7482    0.5468 C   0  0  0  0  0  0  0  0  0  0  0  0
   -1.0332   -3.1746    1.3408 H   0  0  0  0  0  0  0  0  0  0  0  0
   -2.7463   -2.3840   -0.2978 H   0  0  0  0  0  0  0  0  0  0  0  0
    1.0383    0.7934   -1.6109 H   0  0  0  0  0  0  0  0  0  0  0  0
    3.4629   -0.9951    1.4229 H   0  0  0  0  0  0  0  0  0  0  0  0
    1.6395   -2.5686    2.0323 H   0  0  0  0  0  0  0  0  0  0  0  0
    3.4580    0.7708   -0.3293 O   0  0  0  0  0  0  0  0  0  0  0  0
    3.4011    1.7280   -1.3532 C   0  0  2  0  0  0  0  0  0  0  0  0
    2.6289    2.4820   -1.1606 H   0  0  0  0  0  0  0  0  0  0  0  0
    3.2198    1.2661   -2.3299 H   0  0  0  0  0  0  0  0  0  0  0  0
    4.3766    2.2121   -1.3616 H   0  0  0  0  0  0  0  0  0  0  0  0
   -1.8997   -0.0804   -1.9525 C   0  0  2  0  0  0  0  0  0  0  0  0
   -2.6280    1.0537   -1.2062 C   0  0  2  0  0  0  0  0  0  0  0  0
   -1.7404    1.7538   -0.3082 N   0  0  0  0  0  0  0  0  0  0  0  0
   -1.6829    1.4588    1.0157 C   0  0  0  0  0  0  0  0  0  0  0  0
   -0.5090    2.1002    1.7258 C   0  0  2  0  0  0  0  0  0  0  0  0
   -2.6326   -0.6502   -2.5252 H   0  0  0  0  0  0  0  0  0  0  0  0
   -1.1736    0.3457   -2.6482 H   0  0  0  0  0  0  0  0  0  0  0  0
   -3.4211    0.6334   -0.5847 H   0  0  0  0  0  0  0  0  0  0  0  0
   -3.0599    1.7646   -1.9173 H   0  0  0  0  0  0  0  0  0  0  0  0
   -0.9443    2.2096   -0.7258 H   0  0  0  0  0  0  0  0  0  0  0  0
   -2.5127    0.7767    1.5767 O   0  0  0  0  0  0  0  0  0  0  0  0
    0.4041    1.5762    1.4465 H   0  0  0  0  0  0  0  0  0  0  0  0
   -0.6473    2.0143    2.7992 H   0  0  0  0  0  0  0  0  0  0  0  0
   -0.4163    3.1484    1.4520 H   0  0  0  0  0  0  0  0  0  0  0  0
  1 10  1  0
  2  1  1  0
  3  4  1  0
  3  2  2  0
  4  9  1  0
  5  4  2  0
  5  6  1  0
  6  7  2  0
  7  8  1  0
  7 13  1  0
  8 14  1  0
  9  1  1  0
  9  8  2  0
 11  2  1  0
 12  5  1  0
 15  6  1  0
 16 17  1  1
 16 15  1  0
 18 16  1  0
 19 16  1  0
 20 21  1  0
 20  3  1  0
 21 27  1  1
 21 22  1  0
 22 23  1  0
 23 30  2  0
 23 24  1  0
 24 32  1  1
 20 25  1  6
 26 20  1  0
 28 21  1  0
 29 22  1  0
 31 24  1  0
 33 24  1  0
M  END
$$$$
