 energy: -40.200373372879 gnorm: 0.000034042048 xtb: 6.5.1 (9af7eec)
     RDKit          3D

 26 25  0  0  0  0  0  0  0  0999 V2000
    0.5687   -0.1723    0.8856 N   0  0  0  0  0  0  0  0  0  0  0  0
   -0.5217    0.1434   -0.0064 C   0  0  2  0  0  0  0  0  0  0  0  0
   -1.3556    1.2420    0.6670 C   0  0  0  0  0  0  0  0  0  0  0  0
   -1.1724    1.5420    1.8306 O   0  0  0  0  0  0  0  0  0  0  0  0
   -1.4249   -1.0910   -0.2932 C   0  0  2  0  0  0  0  0  0  0  0  0
   -2.3053   -1.3420    0.7761 O   0  0  0  0  0  0  0  0  0  0  0  0
   -0.5803   -2.3132   -0.6426 C   0  0  2  0  0  0  0  0  0  0  0  0
    0.4062    0.1314    1.8399 H   0  0  0  0  0  0  0  0  0  0  0  0
   -0.0958    0.4922   -0.9549 H   0  0  0  0  0  0  0  0  0  0  0  0
   -2.0815   -0.8488   -1.1367 H   0  0  0  0  0  0  0  0  0  0  0  0
   -1.7851   -1.5814    1.5524 H   0  0  0  0  0  0  0  0  0  0  0  0
    0.1088   -2.0741   -1.4469 H   0  0  0  0  0  0  0  0  0  0  0  0
   -1.2267   -3.1318   -0.9484 H   0  0  0  0  0  0  0  0  0  0  0  0
   -0.0010   -2.6294    0.2225 H   0  0  0  0  0  0  0  0  0  0  0  0
   -2.2694    1.8205   -0.1262 N   0  0  0  0  0  0  0  0  0  0  0  0
   -2.3896    1.4868   -1.0687 H   0  0  0  0  0  0  0  0  0  0  0  0
   -3.2057    2.8068    0.3577 C   0  0  1  0  0  0  0  0  0  0  0  0
   -3.1491    3.7128   -0.2472 H   0  0  0  0  0  0  0  0  0  0  0  0
   -4.2252    2.4180    0.3320 H   0  0  0  0  0  0  0  0  0  0  0  0
   -2.9354    3.0381    1.3862 H   0  0  0  0  0  0  0  0  0  0  0  0
    1.8399   -0.3155    0.4316 C   0  0  0  0  0  0  0  0  0  0  0  0
    2.1033   -0.4082   -0.7482 O   0  0  0  0  0  0  0  0  0  0  0  0
    2.8697   -0.3901    1.5369 C   0  0  2  0  0  0  0  0  0  0  0  0
    2.9367    0.5736    2.0375 H   0  0  0  0  0  0  0  0  0  0  0  0
    3.8375   -0.6391    1.1121 H   0  0  0  0  0  0  0  0  0  0  0  0
    2.5873   -1.1431    2.2686 H   0  0  0  0  0  0  0  0  0  0  0  0
  1  2  1  0
  1 21  1  0
  1  8  1  0
  2  9  1  6
  2  3  1  0
  2  5  1  0
  3  4  1  0
  3 15  1  0
  5 10  1  6
  5  7  1  0
  5  6  1  0
  6 11  1  0
  7 14  1  1
  7 12  1  0
  7 13  1  0
 15 17  1  0
 15 16  1  0
 17 19  1  1
 17 20  1  0
 17 18  1  0
 21 22  1  0
 21 23  1  0
 23 24  1  1
 23 25  1  0
 23 26  1  0
M  END
$$$$
