-24.28717368
     RDKit          3D

 14 13  0  0  1  0  0  0  0  0999 V2000
   -0.0988   -1.6516   -0.3269 N   0  0  0  0  0  0  0  0  0  0  0  0
    0.1813   -0.2334   -0.4187 C   0  0  2  0  0  0  0  0  0  0  0  0
    1.6149    0.1100   -0.0200 C   0  0  0  0  0  0  0  0  0  0  0  0
    1.9675    1.3410   -0.3910 O   0  0  0  0  0  0  0  0  0  0  0  0
    2.3432   -0.6383    0.5749 O   0  0  0  0  0  0  0  0  0  0  0  0
   -0.7597    0.5312    0.5184 C   0  0  1  0  0  0  0  0  0  0  0  0
   -2.4946    0.2738    0.0262 S   0  0  0  0  0  0  0  0  0  0  0  0
    0.2422   -2.0053    0.5632 H   0  0  0  0  0  0  0  0  0  0  0  0
    0.3844   -2.1623   -1.0570 H   0  0  0  0  0  0  0  0  0  0  0  0
    0.0093    0.1065   -1.4453 H   0  0  0  0  0  0  0  0  0  0  0  0
    2.8752    1.5411   -0.1089 H   0  0  0  0  0  0  0  0  0  0  0  0
   -0.6382    0.1851    1.5459 H   0  0  0  0  0  0  0  0  0  0  0  0
   -0.5773    1.6028    0.4651 H   0  0  0  0  0  0  0  0  0  0  0  0
   -2.3505   -1.0396   -0.1247 H   0  0  0  0  0  0  0  0  0  0  0  0
  1  8  1  0
  2 10  1  6
  2  1  1  0
  2  3  1  0
  2  6  1  0
  3  5  2  0
  4 11  1  0
  4  3  1  0
  6 12  1  1
  7  6  1  0
  9  1  1  0
 13  6  1  0
 14  7  1  0
M  END
$$$$
