-24.28283126
     RDKit          3D

 14 13  0  0  1  0  0  0  0  0999 V2000
    0.3054   -2.1048    0.8344 N   0  0  0  0  0  0  0  0  0  0  0  0
   -0.0016   -0.9792   -0.0316 C   0  0  2  0  0  0  0  0  0  0  0  0
    1.1748   -0.0073   -0.1490 C   0  0  0  0  0  0  0  0  0  0  0  0
    1.4774    0.5532    1.0276 O   0  0  0  0  0  0  0  0  0  0  0  0
    1.8046    0.1923   -1.1511 O   0  0  0  0  0  0  0  0  0  0  0  0
   -1.2333   -0.2610    0.5148 C   0  0  1  0  0  0  0  0  0  0  0  0
   -1.7064    1.1703   -0.5087 S   0  0  0  0  0  0  0  0  0  0  0  0
    0.5630   -1.7750    1.7590 H   0  0  0  0  0  0  0  0  0  0  0  0
    1.0780   -2.6446    0.4608 H   0  0  0  0  0  0  0  0  0  0  0  0
   -0.2077   -1.3680   -1.0358 H   0  0  0  0  0  0  0  0  0  0  0  0
    2.2278    1.1603    0.9301 H   0  0  0  0  0  0  0  0  0  0  0  0
   -2.0716   -0.9531    0.5795 H   0  0  0  0  0  0  0  0  0  0  0  0
   -1.0245    0.1482    1.5029 H   0  0  0  0  0  0  0  0  0  0  0  0
   -1.9133    0.4877   -1.6325 H   0  0  0  0  0  0  0  0  0  0  0  0
  1  8  1  0
  2 10  1  6
  2  6  1  0
  2  1  1  0
  3  2  1  0
  3  4  1  0
  5  3  2  0
  6 12  1  1
  6 13  1  0
  7  6  1  0
  9  1  1  0
 11  4  1  0
 14  7  1  0
M  END
$$$$
