-24.28456180
     RDKit          3D

 14 13  0  0  1  0  0  0  0  0999 V2000
    0.1942   -2.2193   -0.3525 N   0  0  0  0  0  0  0  0  0  0  0  0
    0.0347   -0.7821   -0.4229 C   0  0  2  0  0  0  0  0  0  0  0  0
    1.3099   -0.0429   -0.0220 C   0  0  0  0  0  0  0  0  0  0  0  0
    1.3103    1.2449   -0.3858 O   0  0  0  0  0  0  0  0  0  0  0  0
    2.2214   -0.5534    0.5714 O   0  0  0  0  0  0  0  0  0  0  0  0
   -1.1072   -0.3705    0.5200 C   0  0  1  0  0  0  0  0  0  0  0  0
   -1.9316    1.1768    0.0335 S   0  0  0  0  0  0  0  0  0  0  0  0
    0.8666   -2.5374   -1.0419 H   0  0  0  0  0  0  0  0  0  0  0  0
    0.5577   -2.4779    0.5602 H   0  0  0  0  0  0  0  0  0  0  0  0
   -0.2325   -0.5026   -1.4477 H   0  0  0  0  0  0  0  0  0  0  0  0
    2.1354    1.6782   -0.1108 H   0  0  0  0  0  0  0  0  0  0  0  0
   -1.8802   -1.1366    0.4718 H   0  0  0  0  0  0  0  0  0  0  0  0
   -0.7582   -0.2798    1.5496 H   0  0  0  0  0  0  0  0  0  0  0  0
   -0.8367    1.9322    0.0124 H   0  0  0  0  0  0  0  0  0  0  0  0
  1  9  1  0
  2 10  1  6
  2  1  1  0
  2  3  1  0
  2  6  1  0
  3  5  2  0
  4 11  1  0
  4  3  1  0
  6 13  1  1
  7  6  1  0
  8  1  1  0
 12  6  1  0
 14  7  1  0
M  END
$$$$
