-24.28432236
     RDKit          3D

 14 13  0  0  1  0  0  0  0  0999 V2000
   -0.1722   -1.3136   -1.4144 N   0  0  0  0  0  0  0  0  0  0  0  0
    0.0686    0.0640   -1.0444 C   0  0  2  0  0  0  0  0  0  0  0  0
    1.2434    0.2718   -0.0825 C   0  0  0  0  0  0  0  0  0  0  0  0
    2.2492   -0.5701   -0.3340 O   0  0  0  0  0  0  0  0  0  0  0  0
    1.2871    1.0934    0.7948 O   0  0  0  0  0  0  0  0  0  0  0  0
   -1.2061    0.6914   -0.4822 C   0  0  1  0  0  0  0  0  0  0  0  0
   -1.7163   -0.0533    1.1062 S   0  0  0  0  0  0  0  0  0  0  0  0
   -0.5493   -1.8233   -0.6203 H   0  0  0  0  0  0  0  0  0  0  0  0
    0.6875   -1.7640   -1.7053 H   0  0  0  0  0  0  0  0  0  0  0  0
    0.3405    0.6104   -1.9619 H   0  0  0  0  0  0  0  0  0  0  0  0
    2.9868   -0.4135    0.2769 H   0  0  0  0  0  0  0  0  0  0  0  0
   -1.0784    1.7604   -0.3262 H   0  0  0  0  0  0  0  0  0  0  0  0
   -2.0288    0.5057   -1.1696 H   0  0  0  0  0  0  0  0  0  0  0  0
   -0.7698    0.5292    1.8357 H   0  0  0  0  0  0  0  0  0  0  0  0
  1  2  1  0
  1  8  1  0
  2 10  1  6
  2  6  1  0
  2  3  1  0
  3  5  2  0
  4  3  1  0
  4 11  1  0
  6 12  1  1
  6  7  1  0
  7 14  1  0
  9  1  1  0
 13  6  1  0
M  END
$$$$
