-24.28424807
     RDKit          3D

 14 13  0  0  1  0  0  0  0  0999 V2000
   -0.0743   -1.5434   -1.0896 N   0  0  0  0  0  0  0  0  0  0  0  0
    0.1165   -0.1135   -1.0225 C   0  0  2  0  0  0  0  0  0  0  0  0
    1.2851    0.1823   -0.0954 C   0  0  0  0  0  0  0  0  0  0  0  0
    2.1992    0.9577   -0.6696 O   0  0  0  0  0  0  0  0  0  0  0  0
    1.3685   -0.1981    1.0435 O   0  0  0  0  0  0  0  0  0  0  0  0
   -1.1071    0.6896   -0.5172 C   0  0  1  0  0  0  0  0  0  0  0  0
   -1.8201    0.0108    1.0209 S   0  0  0  0  0  0  0  0  0  0  0  0
   -0.9079   -1.7653   -1.6229 H   0  0  0  0  0  0  0  0  0  0  0  0
   -0.1894   -1.9235   -0.1546 H   0  0  0  0  0  0  0  0  0  0  0  0
    0.3736    0.2557   -2.0223 H   0  0  0  0  0  0  0  0  0  0  0  0
    2.9340    1.1394   -0.0599 H   0  0  0  0  0  0  0  0  0  0  0  0
   -0.8443    1.7360   -0.3554 H   0  0  0  0  0  0  0  0  0  0  0  0
   -1.9124    0.6342   -1.2499 H   0  0  0  0  0  0  0  0  0  0  0  0
   -0.6692   -0.0667    1.6853 H   0  0  0  0  0  0  0  0  0  0  0  0
  1  2  1  0
  1  9  1  0
  2 10  1  6
  2  6  1  0
  2  3  1  0
  3  5  2  0
  4  3  1  0
  4 11  1  0
  6 12  1  1
  6  7  1  0
  7 14  1  0
  8  1  1  0
 13  6  1  0
M  END
$$$$
