-42.54270636
     RDKit          3D

 29 28  0  0  1  0  0  0  0  0999 V2000
    1.7280   -0.8449    0.3310 N   0  0  0  0  0  0  0  0  0  0  0  0
    1.7662   -1.3326    1.2128 H   0  0  0  0  0  0  0  0  0  0  0  0
    0.4063   -0.4650   -0.1304 C   0  0  1  0  0  0  0  0  0  0  0  0
    0.5246   -0.0604   -1.1364 H   0  0  0  0  0  0  0  0  0  0  0  0
   -0.5269   -1.6777   -0.1482 C   0  0  2  0  0  0  0  0  0  0  0  0
   -0.8682   -1.8675    0.8726 H   0  0  0  0  0  0  0  0  0  0  0  0
    0.0237   -2.5545   -0.4980 H   0  0  0  0  0  0  0  0  0  0  0  0
   -1.7148   -1.4514   -1.0705 C   0  0  2  0  0  0  0  0  0  0  0  0
   -2.4188   -2.2824   -1.0147 H   0  0  0  0  0  0  0  0  0  0  0  0
   -1.3835   -1.3352   -2.1025 H   0  0  0  0  0  0  0  0  0  0  0  0
   -2.6395    0.0788   -0.7134 S   0  0  0  0  0  0  0  0  0  0  0  0
   -3.4097   -0.3536    0.8694 C   0  0  2  0  0  0  0  0  0  0  0  0
   -2.6575   -0.3497    1.6541 H   0  0  0  0  0  0  0  0  0  0  0  0
   -3.8854   -1.3259    0.7804 H   0  0  0  0  0  0  0  0  0  0  0  0
   -4.1558    0.4087    1.0680 H   0  0  0  0  0  0  0  0  0  0  0  0
   -0.1307    0.5923    0.8474 C   0  0  0  0  0  0  0  0  0  0  0  0
   -0.5224    0.2634    1.9566 O   0  0  0  0  0  0  0  0  0  0  0  0
   -0.0468    1.8798    0.4842 N   0  0  0  0  0  0  0  0  0  0  0  0
   -0.4318    2.5267    1.1584 H   0  0  0  0  0  0  0  0  0  0  0  0
    2.8595   -0.3286   -0.2017 C   0  0  0  0  0  0  0  0  0  0  0  0
    2.8517    0.4063   -1.1684 O   0  0  0  0  0  0  0  0  0  0  0  0
    4.1213   -0.7765    0.5022 C   0  0  2  0  0  0  0  0  0  0  0  0
    4.1422   -0.3698    1.5114 H   0  0  0  0  0  0  0  0  0  0  0  0
    4.9856   -0.4132   -0.0458 H   0  0  0  0  0  0  0  0  0  0  0  0
    4.1580   -1.8617    0.5611 H   0  0  0  0  0  0  0  0  0  0  0  0
    0.2968    2.4138   -0.8140 C   0  0  1  0  0  0  0  0  0  0  0  0
    1.2414    1.9957   -1.1647 H   0  0  0  0  0  0  0  0  0  0  0  0
   -0.4907    2.2006   -1.5429 H   0  0  0  0  0  0  0  0  0  0  0  0
    0.4086    3.4914   -0.7250 H   0  0  0  0  0  0  0  0  0  0  0  0
  1  2  1  0
  3  4  1  6
  3  1  1  0
  3 16  1  0
  5  3  1  0
  5  6  1  1
  7  5  1  0
  8  9  1  6
  8 11  1  0
  8  5  1  0
 10  8  1  0
 11 12  1  0
 12 15  1  1
 12 13  1  0
 14 12  1  0
 16 17  2  0
 18 16  1  0
 18 19  1  0
 20  1  1  0
 20 22  1  0
 21 20  2  0
 22 25  1  1
 22 23  1  0
 24 22  1  0
 26 29  1  1
 26 18  1  0
 27 26  1  0
 28 26  1  0
M  END
$$$$
