-47.84864352
     RDKit          3D

 32 32  0  0  1  0  0  0  0  0999 V2000
    2.3593    0.1355    0.3437 N   0  0  0  0  0  0  0  0  0  0  0  0
    0.9620    0.1362   -0.0031 C   0  0  2  0  0  0  0  0  0  0  0  0
    0.5060    1.5994   -0.0135 C   0  0  0  0  0  0  0  0  0  0  0  0
    0.8852    2.3723    0.8434 O   0  0  0  0  0  0  0  0  0  0  0  0
    0.1303   -0.6144    1.0697 C   0  0  2  0  0  0  0  0  0  0  0  0
   -1.3195   -0.6697    0.6905 C   0  0  0  0  0  0  0  0  0  0  0  0
   -2.1948    0.3309    1.0956 C   0  0  0  0  0  0  0  0  0  0  0  0
   -1.8004   -1.6983   -0.1119 C   0  0  0  0  0  0  0  0  0  0  0  0
   -3.5216    0.3049    0.7043 C   0  0  0  0  0  0  0  0  0  0  0  0
   -3.1282   -1.7271   -0.5014 C   0  0  0  0  0  0  0  0  0  0  0  0
   -3.9912   -0.7229   -0.0964 C   0  0  0  0  0  0  0  0  0  0  0  0
    2.6285    0.8695    0.9899 H   0  0  0  0  0  0  0  0  0  0  0  0
    0.8187   -0.3294   -0.9791 H   0  0  0  0  0  0  0  0  0  0  0  0
    0.2570   -0.0876    2.0170 H   0  0  0  0  0  0  0  0  0  0  0  0
    0.5356   -1.6222    1.1777 H   0  0  0  0  0  0  0  0  0  0  0  0
   -1.8311    1.1322    1.7219 H   0  0  0  0  0  0  0  0  0  0  0  0
   -1.1309   -2.4860   -0.4288 H   0  0  0  0  0  0  0  0  0  0  0  0
   -4.1923    1.0869    1.0279 H   0  0  0  0  0  0  0  0  0  0  0  0
   -3.4896   -2.5348   -1.1208 H   0  0  0  0  0  0  0  0  0  0  0  0
   -5.0272   -0.7448   -0.3995 H   0  0  0  0  0  0  0  0  0  0  0  0
   -0.3391    1.9920   -0.9852 N   0  0  0  0  0  0  0  0  0  0  0  0
   -0.5954    2.9681   -0.9358 H   0  0  0  0  0  0  0  0  0  0  0  0
   -0.8252    1.2413   -2.1187 C   0  0  1  0  0  0  0  0  0  0  0  0
   -0.0165    1.0080   -2.8174 H   0  0  0  0  0  0  0  0  0  0  0  0
   -1.3035    0.3146   -1.7992 H   0  0  0  0  0  0  0  0  0  0  0  0
   -1.5647    1.8429   -2.6408 H   0  0  0  0  0  0  0  0  0  0  0  0
    3.3284   -0.7388   -0.0121 C   0  0  0  0  0  0  0  0  0  0  0  0
    4.4599   -0.6211    0.4067 O   0  0  0  0  0  0  0  0  0  0  0  0
    2.9178   -1.8425   -0.9663 C   0  0  2  0  0  0  0  0  0  0  0  0
    2.0915   -2.4205   -0.5607 H   0  0  0  0  0  0  0  0  0  0  0  0
    3.7710   -2.4966   -1.1206 H   0  0  0  0  0  0  0  0  0  0  0  0
    2.6208   -1.4198   -1.9241 H   0  0  0  0  0  0  0  0  0  0  0  0
  1 12  1  0
  2 13  1  6
  2  1  1  0
  2  5  1  0
  3  2  1  0
  3  4  2  0
  5 15  1  1
  5 14  1  0
  6  5  1  0
  6  7  2  0
  7 16  1  0
  8  6  1  0
  9 18  1  0
  9  7  1  0
 10  8  2  0
 10 11  1  0
 11  9  2  0
 17  8  1  0
 19 10  1  0
 20 11  1  0
 21 22  1  0
 21  3  1  0
 23 25  1  1
 23 21  1  0
 24 23  1  0
 26 23  1  0
 27  1  1  0
 27 28  2  0
 29 30  1  1
 29 27  1  0
 31 29  1  0
 32 29  1  0
M  END
$$$$
