-47.84557716
     RDKit          3D

 32 32  0  0  1  0  0  0  0  0999 V2000
    2.1431   -0.2233    0.5915 N   0  0  0  0  0  0  0  0  0  0  0  0
    0.7796   -0.3584    0.1415 C   0  0  2  0  0  0  0  0  0  0  0  0
    0.3290    0.7437   -0.8331 C   0  0  0  0  0  0  0  0  0  0  0  0
   -0.3161    0.4589   -1.8230 O   0  0  0  0  0  0  0  0  0  0  0  0
   -0.1777   -0.4212    1.3448 C   0  0  2  0  0  0  0  0  0  0  0  0
   -1.5996   -0.5703    0.8763 C   0  0  0  0  0  0  0  0  0  0  0  0
   -2.4331    0.5351    0.7818 C   0  0  0  0  0  0  0  0  0  0  0  0
   -2.0842   -1.8135    0.4930 C   0  0  0  0  0  0  0  0  0  0  0  0
   -3.7275    0.4012    0.3126 C   0  0  0  0  0  0  0  0  0  0  0  0
   -3.3777   -1.9494    0.0237 C   0  0  0  0  0  0  0  0  0  0  0  0
   -4.2021   -0.8413   -0.0688 C   0  0  0  0  0  0  0  0  0  0  0  0
    2.2927    0.0685    1.5474 H   0  0  0  0  0  0  0  0  0  0  0  0
    0.6709   -1.2930   -0.4250 H   0  0  0  0  0  0  0  0  0  0  0  0
   -0.0807    0.4857    1.9450 H   0  0  0  0  0  0  0  0  0  0  0  0
    0.1077   -1.2760    1.9629 H   0  0  0  0  0  0  0  0  0  0  0  0
   -2.0672    1.5092    1.0755 H   0  0  0  0  0  0  0  0  0  0  0  0
   -1.4432   -2.6809    0.5632 H   0  0  0  0  0  0  0  0  0  0  0  0
   -4.3655    1.2698    0.2414 H   0  0  0  0  0  0  0  0  0  0  0  0
   -3.7423   -2.9216   -0.2734 H   0  0  0  0  0  0  0  0  0  0  0  0
   -5.2112   -0.9458   -0.4386 H   0  0  0  0  0  0  0  0  0  0  0  0
    0.6361    2.0293   -0.5654 N   0  0  0  0  0  0  0  0  0  0  0  0
    0.3221    2.6650   -1.2863 H   0  0  0  0  0  0  0  0  0  0  0  0
    1.4571    2.6001    0.4766 C   0  0  1  0  0  0  0  0  0  0  0  0
    1.1755    2.2116    1.4546 H   0  0  0  0  0  0  0  0  0  0  0  0
    2.5197    2.4027    0.3115 H   0  0  0  0  0  0  0  0  0  0  0  0
    1.3035    3.6774    0.4845 H   0  0  0  0  0  0  0  0  0  0  0  0
    3.2743   -0.3367   -0.1505 C   0  0  0  0  0  0  0  0  0  0  0  0
    4.3546   -0.0855    0.3433 O   0  0  0  0  0  0  0  0  0  0  0  0
    3.0892   -0.7961   -1.5745 C   0  0  2  0  0  0  0  0  0  0  0  0
    2.7134   -1.8175   -1.5837 H   0  0  0  0  0  0  0  0  0  0  0  0
    4.0492   -0.7666   -2.0817 H   0  0  0  0  0  0  0  0  0  0  0  0
    2.3766   -0.1659   -2.1007 H   0  0  0  0  0  0  0  0  0  0  0  0
  1 12  1  0
  2 13  1  6
  2  1  1  0
  2  5  1  0
  3 21  1  0
  3  2  1  0
  4  3  2  0
  5 14  1  1
  5 15  1  0
  6  5  1  0
  7  6  1  0
  7 16  1  0
  8 17  1  0
  8  6  2  0
  9  7  2  0
 10  8  1  0
 11 10  2  0
 11  9  1  0
 18  9  1  0
 19 10  1  0
 20 11  1  0
 21 23  1  0
 22 21  1  0
 23 26  1  1
 23 24  1  0
 25 23  1  0
 27 28  2  0
 27  1  1  0
 29 27  1  0
 29 30  1  1
 31 29  1  0
 32 29  1  0
M  END
$$$$
