-47.84551102
     RDKit          3D

 32 32  0  0  1  0  0  0  0  0999 V2000
    1.2321   -0.1150    0.1255 N   0  0  0  0  0  0  0  0  0  0  0  0
    0.6507    0.5398   -1.0213 C   0  0  2  0  0  0  0  0  0  0  0  0
    0.2923    1.9948   -0.6742 C   0  0  0  0  0  0  0  0  0  0  0  0
   -0.7811    2.4894   -0.9492 O   0  0  0  0  0  0  0  0  0  0  0  0
   -0.5949   -0.2136   -1.5465 C   0  0  2  0  0  0  0  0  0  0  0  0
   -1.4896   -0.6628   -0.4234 C   0  0  0  0  0  0  0  0  0  0  0  0
   -2.5235    0.1464    0.0303 C   0  0  0  0  0  0  0  0  0  0  0  0
   -1.2712   -1.8876    0.1969 C   0  0  0  0  0  0  0  0  0  0  0  0
   -3.3201   -0.2604    1.0860 C   0  0  0  0  0  0  0  0  0  0  0  0
   -2.0663   -2.2934    1.2541 C   0  0  0  0  0  0  0  0  0  0  0  0
   -3.0927   -1.4796    1.7018 C   0  0  0  0  0  0  0  0  0  0  0  0
    0.7135   -0.0153    0.9889 H   0  0  0  0  0  0  0  0  0  0  0  0
    1.3975    0.5848   -1.8225 H   0  0  0  0  0  0  0  0  0  0  0  0
   -0.2639   -1.0832   -2.1173 H   0  0  0  0  0  0  0  0  0  0  0  0
   -1.1364    0.4620   -2.2090 H   0  0  0  0  0  0  0  0  0  0  0  0
   -2.6916    1.1021   -0.4419 H   0  0  0  0  0  0  0  0  0  0  0  0
   -0.4727   -2.5306   -0.1468 H   0  0  0  0  0  0  0  0  0  0  0  0
   -4.1217    0.3773    1.4292 H   0  0  0  0  0  0  0  0  0  0  0  0
   -1.8821   -3.2460    1.7286 H   0  0  0  0  0  0  0  0  0  0  0  0
   -3.7142   -1.7958    2.5267 H   0  0  0  0  0  0  0  0  0  0  0  0
    1.2488    2.7275   -0.0683 N   0  0  0  0  0  0  0  0  0  0  0  0
    0.9514    3.6636    0.1696 H   0  0  0  0  0  0  0  0  0  0  0  0
    2.6126    2.3795    0.2497 C   0  0  1  0  0  0  0  0  0  0  0  0
    3.1867    3.2959    0.3717 H   0  0  0  0  0  0  0  0  0  0  0  0
    2.6818    1.7987    1.1726 H   0  0  0  0  0  0  0  0  0  0  0  0
    3.0597    1.8000   -0.5573 H   0  0  0  0  0  0  0  0  0  0  0  0
    2.1884   -1.0772    0.1599 C   0  0  0  0  0  0  0  0  0  0  0  0
    2.4785   -1.6158    1.2067 O   0  0  0  0  0  0  0  0  0  0  0  0
    2.8823   -1.3944   -1.1467 C   0  0  2  0  0  0  0  0  0  0  0  0
    3.6005   -2.1894   -0.9680 H   0  0  0  0  0  0  0  0  0  0  0  0
    3.4117   -0.5220   -1.5242 H   0  0  0  0  0  0  0  0  0  0  0  0
    2.1640   -1.7229   -1.8937 H   0  0  0  0  0  0  0  0  0  0  0  0
  1 27  1  0
  1 12  1  0
  2 13  1  6
  2  3  1  0
  2  1  1  0
  3 21  1  0
  4  3  2  0
  5  2  1  0
  5  6  1  0
  6  7  2  0
  6  8  1  0
  7  9  1  0
  8 10  2  0
  9 18  1  0
  9 11  2  0
 10 11  1  0
 10 19  1  0
 11 20  1  0
  5 14  1  6
 15  5  1  0
 16  7  1  0
 17  8  1  0
 21 22  1  0
 21 23  1  0
 23 24  1  1
 23 25  1  0
 26 23  1  0
 27 28  2  0
 29 30  1  1
 29 27  1  0
 31 29  1  0
 32 29  1  0
M  END
$$$$
