-47.84540503
     RDKit          3D

 32 32  0  0  1  0  0  0  0  0999 V2000
    1.1297   -0.0155    0.1529 N   0  0  0  0  0  0  0  0  0  0  0  0
    0.5825    0.6573   -1.0044 C   0  0  2  0  0  0  0  0  0  0  0  0
    0.3693    2.1386   -0.6492 C   0  0  0  0  0  0  0  0  0  0  0  0
   -0.7167    2.6790   -0.6728 O   0  0  0  0  0  0  0  0  0  0  0  0
   -0.7370    0.0109   -1.4956 C   0  0  2  0  0  0  0  0  0  0  0  0
   -1.5060   -0.6146   -0.3637 C   0  0  0  0  0  0  0  0  0  0  0  0
   -2.3132    0.1643    0.4564 C   0  0  0  0  0  0  0  0  0  0  0  0
   -1.3855   -1.9724   -0.0980 C   0  0  0  0  0  0  0  0  0  0  0  0
   -2.9875   -0.4069    1.5208 C   0  0  0  0  0  0  0  0  0  0  0  0
   -2.0595   -2.5439    0.9666 C   0  0  0  0  0  0  0  0  0  0  0  0
   -2.8614   -1.7617    1.7792 C   0  0  0  0  0  0  0  0  0  0  0  0
    0.6594    0.1798    1.0278 H   0  0  0  0  0  0  0  0  0  0  0  0
    1.3213    0.6248   -1.8121 H   0  0  0  0  0  0  0  0  0  0  0  0
   -0.5085   -0.7499   -2.2437 H   0  0  0  0  0  0  0  0  0  0  0  0
   -1.3360    0.7943   -1.9621 H   0  0  0  0  0  0  0  0  0  0  0  0
   -2.4027    1.2215    0.2559 H   0  0  0  0  0  0  0  0  0  0  0  0
   -0.7612   -2.5909   -0.7279 H   0  0  0  0  0  0  0  0  0  0  0  0
   -3.6134    0.2076    2.1514 H   0  0  0  0  0  0  0  0  0  0  0  0
   -1.9551   -3.6008    1.1628 H   0  0  0  0  0  0  0  0  0  0  0  0
   -3.3867   -2.2068    2.6114 H   0  0  0  0  0  0  0  0  0  0  0  0
    1.4772    2.8265   -0.3063 N   0  0  0  0  0  0  0  0  0  0  0  0
    1.3064    3.7975   -0.0861 H   0  0  0  0  0  0  0  0  0  0  0  0
    2.8517    2.3868   -0.3345 C   0  0  1  0  0  0  0  0  0  0  0  0
    3.1604    2.1237   -1.3504 H   0  0  0  0  0  0  0  0  0  0  0  0
    3.4851    3.1976    0.0155 H   0  0  0  0  0  0  0  0  0  0  0  0
    3.0024    1.5224    0.3133 H   0  0  0  0  0  0  0  0  0  0  0  0
    1.9337   -1.1100    0.1887 C   0  0  0  0  0  0  0  0  0  0  0  0
    2.1861   -1.6513    1.2432 O   0  0  0  0  0  0  0  0  0  0  0  0
    2.5278   -1.5546   -1.1291 C   0  0  2  0  0  0  0  0  0  0  0  0
    1.7430   -1.7965   -1.8409 H   0  0  0  0  0  0  0  0  0  0  0  0
    3.1343   -2.4379   -0.9509 H   0  0  0  0  0  0  0  0  0  0  0  0
    3.1577   -0.7720   -1.5470 H   0  0  0  0  0  0  0  0  0  0  0  0
  1 27  1  0
  1 12  1  0
  2 13  1  6
  2  3  1  0
  2  1  1  0
  3 21  1  0
  4  3  2  0
  5  2  1  0
  5  6  1  0
  6  8  2  0
  6  7  1  0
  7  9  2  0
  8 10  1  0
  9 11  1  0
  9 18  1  0
 10 19  1  0
 10 11  2  0
 11 20  1  0
  5 14  1  6
 15  5  1  0
 16  7  1  0
 17  8  1  0
 21 22  1  0
 23 21  1  0
 23 25  1  1
 23 26  1  0
 24 23  1  0
 27 28  2  0
 29 31  1  1
 29 27  1  0
 30 29  1  0
 32 29  1  0
M  END
$$$$
