-47.84223955
     RDKit          3D

 32 32  0  0  1  0  0  0  0  0999 V2000
    1.2860   -0.3379    0.5011 N   0  0  0  0  0  0  0  0  0  0  0  0
    0.5541    0.6324   -0.2752 C   0  0  2  0  0  0  0  0  0  0  0  0
    1.3332    1.9570   -0.3469 C   0  0  0  0  0  0  0  0  0  0  0  0
    2.0194    2.3465    0.5726 O   0  0  0  0  0  0  0  0  0  0  0  0
   -0.7893    0.9305    0.3995 C   0  0  2  0  0  0  0  0  0  0  0  0
   -1.7300   -0.2427    0.5350 C   0  0  0  0  0  0  0  0  0  0  0  0
   -2.8830   -0.0639    1.2943 C   0  0  0  0  0  0  0  0  0  0  0  0
   -1.5152   -1.4753   -0.0639 C   0  0  0  0  0  0  0  0  0  0  0  0
   -3.7975   -1.0877    1.4511 C   0  0  0  0  0  0  0  0  0  0  0  0
   -2.4308   -2.5034    0.0940 C   0  0  0  0  0  0  0  0  0  0  0  0
   -3.5735   -2.3148    0.8489 C   0  0  0  0  0  0  0  0  0  0  0  0
    1.1046   -0.3475    1.4952 H   0  0  0  0  0  0  0  0  0  0  0  0
    0.3925    0.2388   -1.2822 H   0  0  0  0  0  0  0  0  0  0  0  0
   -1.2977    1.7204   -0.1632 H   0  0  0  0  0  0  0  0  0  0  0  0
   -0.5833    1.3359    1.3948 H   0  0  0  0  0  0  0  0  0  0  0  0
   -3.0604    0.8913    1.7682 H   0  0  0  0  0  0  0  0  0  0  0  0
   -0.6277   -1.6574   -0.6485 H   0  0  0  0  0  0  0  0  0  0  0  0
   -4.6848   -0.9294    2.0460 H   0  0  0  0  0  0  0  0  0  0  0  0
   -2.2442   -3.4577   -0.3759 H   0  0  0  0  0  0  0  0  0  0  0  0
   -4.2841   -3.1183    0.9712 H   0  0  0  0  0  0  0  0  0  0  0  0
    1.1911    2.6892   -1.4748 N   0  0  0  0  0  0  0  0  0  0  0  0
    1.7257    3.5465   -1.4808 H   0  0  0  0  0  0  0  0  0  0  0  0
    0.4661    2.3549   -2.6773 C   0  0  1  0  0  0  0  0  0  0  0  0
   -0.5638    2.0734   -2.4525 H   0  0  0  0  0  0  0  0  0  0  0  0
    0.4459    3.2270   -3.3263 H   0  0  0  0  0  0  0  0  0  0  0  0
    0.9450    1.5348   -3.2213 H   0  0  0  0  0  0  0  0  0  0  0  0
    2.3834   -1.0359    0.1182 C   0  0  0  0  0  0  0  0  0  0  0  0
    2.9661   -1.7589    0.8966 O   0  0  0  0  0  0  0  0  0  0  0  0
    2.7919   -0.8856   -1.3328 C   0  0  2  0  0  0  0  0  0  0  0  0
    3.0111    0.1575   -1.5506 H   0  0  0  0  0  0  0  0  0  0  0  0
    1.9993   -1.2317   -1.9937 H   0  0  0  0  0  0  0  0  0  0  0  0
    3.6822   -1.4833   -1.5050 H   0  0  0  0  0  0  0  0  0  0  0  0
  1 12  1  0
  2 13  1  6
  2  5  1  0
  2  1  1  0
  3  2  1  0
  3  4  2  0
  5  6  1  0
  5 15  1  1
  6  7  2  0
  7  9  1  0
  7 16  1  0
  8 10  2  0
  8  6  1  0
  9 18  1  0
 10 11  1  0
 11 20  1  0
 11  9  2  0
 14  5  1  0
 17  8  1  0
 19 10  1  0
 21  3  1  0
 22 21  1  0
 23 24  1  1
 23 21  1  0
 25 23  1  0
 26 23  1  0
 27  1  1  0
 27 28  2  0
 29 27  1  0
 29 30  1  6
 31 29  1  0
 32 29  1  0
M  END
$$$$
