-47.84197703
     RDKit          3D

 32 32  0  0  1  0  0  0  0  0999 V2000
    2.2092   -0.4155   -0.7696 N   0  0  0  0  0  0  0  0  0  0  0  0
    0.8179   -0.1078   -0.4974 C   0  0  2  0  0  0  0  0  0  0  0  0
    0.6324    1.3364   -0.0048 C   0  0  0  0  0  0  0  0  0  0  0  0
    1.1622    1.7570    1.0043 O   0  0  0  0  0  0  0  0  0  0  0  0
    0.1450   -1.0575    0.5172 C   0  0  2  0  0  0  0  0  0  0  0  0
   -1.3455   -0.8978    0.4133 C   0  0  0  0  0  0  0  0  0  0  0  0
   -2.0733   -1.6337   -0.5142 C   0  0  0  0  0  0  0  0  0  0  0  0
   -2.0093    0.0347    1.2010 C   0  0  0  0  0  0  0  0  0  0  0  0
   -3.4373   -1.4437   -0.6507 C   0  0  0  0  0  0  0  0  0  0  0  0
   -3.3726    0.2283    1.0631 C   0  0  0  0  0  0  0  0  0  0  0  0
   -4.0895   -0.5092    0.1359 C   0  0  0  0  0  0  0  0  0  0  0  0
    2.4605   -0.4117   -1.7493 H   0  0  0  0  0  0  0  0  0  0  0  0
    0.2989   -0.2322   -1.4506 H   0  0  0  0  0  0  0  0  0  0  0  0
    0.4734   -0.8101    1.5248 H   0  0  0  0  0  0  0  0  0  0  0  0
    0.4399   -2.0816    0.2819 H   0  0  0  0  0  0  0  0  0  0  0  0
   -1.5676   -2.3643   -1.1299 H   0  0  0  0  0  0  0  0  0  0  0  0
   -1.4521    0.6113    1.9248 H   0  0  0  0  0  0  0  0  0  0  0  0
   -3.9919   -2.0258   -1.3720 H   0  0  0  0  0  0  0  0  0  0  0  0
   -3.8773    0.9551    1.6822 H   0  0  0  0  0  0  0  0  0  0  0  0
   -5.1536   -0.3595    0.0291 H   0  0  0  0  0  0  0  0  0  0  0  0
   -0.1670    2.1393   -0.7371 N   0  0  0  0  0  0  0  0  0  0  0  0
   -0.2661    3.0688   -0.3531 H   0  0  0  0  0  0  0  0  0  0  0  0
   -0.9362    1.8353   -1.9208 C   0  0  1  0  0  0  0  0  0  0  0  0
   -1.6555    1.0344   -1.7322 H   0  0  0  0  0  0  0  0  0  0  0  0
   -1.4863    2.7261   -2.2127 H   0  0  0  0  0  0  0  0  0  0  0  0
   -0.2884    1.5488   -2.7529 H   0  0  0  0  0  0  0  0  0  0  0  0
    3.3133   -0.5745    0.0164 C   0  0  0  0  0  0  0  0  0  0  0  0
    4.3833   -0.7488   -0.5313 O   0  0  0  0  0  0  0  0  0  0  0  0
    3.1494   -0.5610    1.5103 C   0  0  2  0  0  0  0  0  0  0  0  0
    2.5521    0.2925    1.8159 H   0  0  0  0  0  0  0  0  0  0  0  0
    4.1367   -0.4997    1.9600 H   0  0  0  0  0  0  0  0  0  0  0  0
    2.6739   -1.4823    1.8393 H   0  0  0  0  0  0  0  0  0  0  0  0
  1  2  1  0
  1 27  1  0
  2 13  1  6
  2  3  1  0
  2  5  1  0
  3  4  2  0
  5 14  1  1
  6  5  1  0
  6  8  2  0
  7  6  1  0
  8 17  1  0
  9  7  2  0
  9 11  1  0
 10  8  1  0
 10 19  1  0
 11 10  2  0
 12  1  1  0
 15  5  1  0
 16  7  1  0
 18  9  1  0
 20 11  1  0
 21 22  1  0
 21  3  1  0
 23 24  1  1
 23 21  1  0
 25 23  1  0
 26 23  1  0
 27 29  1  0
 28 27  2  0
 29 30  1  6
 29 32  1  0
 29 31  1  0
M  END
$$$$
