-42.53778322
     RDKit          3D

 29 28  0  0  1  0  0  0  0  0999 V2000
    1.3432   -0.6909    0.3802 N   0  0  0  0  0  0  0  0  0  0  0  0
    1.5621   -1.3125    1.1438 H   0  0  0  0  0  0  0  0  0  0  0  0
    0.1062    0.0560    0.5051 C   0  0  1  0  0  0  0  0  0  0  0  0
   -0.0965    0.5045   -0.4693 H   0  0  0  0  0  0  0  0  0  0  0  0
   -1.0392   -0.8763    0.9012 C   0  0  2  0  0  0  0  0  0  0  0  0
   -1.9098   -0.2693    1.1566 H   0  0  0  0  0  0  0  0  0  0  0  0
   -0.7534   -1.4280    1.8000 H   0  0  0  0  0  0  0  0  0  0  0  0
   -1.3861   -1.8481   -0.2155 C   0  0  2  0  0  0  0  0  0  0  0  0
   -2.0962   -2.6037    0.1204 H   0  0  0  0  0  0  0  0  0  0  0  0
   -0.4887   -2.3391   -0.5900 H   0  0  0  0  0  0  0  0  0  0  0  0
   -2.1157   -1.0187   -1.6682 S   0  0  0  0  0  0  0  0  0  0  0  0
   -3.8054   -0.7545   -1.0577 C   0  0  2  0  0  0  0  0  0  0  0  0
   -4.2506   -1.7111   -0.7983 H   0  0  0  0  0  0  0  0  0  0  0  0
   -4.3595   -0.2960   -1.8696 H   0  0  0  0  0  0  0  0  0  0  0  0
   -3.7954   -0.0903   -0.1984 H   0  0  0  0  0  0  0  0  0  0  0  0
    0.2957    1.1205    1.5962 C   0  0  0  0  0  0  0  0  0  0  0  0
    0.3608    0.8062    2.7713 O   0  0  0  0  0  0  0  0  0  0  0  0
    0.4121    2.3979    1.2010 N   0  0  0  0  0  0  0  0  0  0  0  0
    0.5423    3.0576    1.9557 H   0  0  0  0  0  0  0  0  0  0  0  0
    2.3131   -0.3530   -0.5012 C   0  0  0  0  0  0  0  0  0  0  0  0
    2.1774    0.5326   -1.3204 O   0  0  0  0  0  0  0  0  0  0  0  0
    3.5609   -1.2005   -0.3818 C   0  0  2  0  0  0  0  0  0  0  0  0
    4.2436   -0.9480   -1.1875 H   0  0  0  0  0  0  0  0  0  0  0  0
    3.3087   -2.2568   -0.4375 H   0  0  0  0  0  0  0  0  0  0  0  0
    4.0473   -1.0058    0.5720 H   0  0  0  0  0  0  0  0  0  0  0  0
    0.4094    2.9254   -0.1466 C   0  0  1  0  0  0  0  0  0  0  0  0
    0.7742    3.9489   -0.1188 H   0  0  0  0  0  0  0  0  0  0  0  0
    1.0656    2.3400   -0.7934 H   0  0  0  0  0  0  0  0  0  0  0  0
   -0.6000    2.9276   -0.5667 H   0  0  0  0  0  0  0  0  0  0  0  0
  1  3  1  0
  1  2  1  0
  3  4  1  6
  3  5  1  0
  3 16  1  0
  5  6  1  1
  5  7  1  0
  8  9  1  1
  8  5  1  0
 10  8  1  0
 11 12  1  0
 11  8  1  0
 12 13  1  1
 12 15  1  0
 14 12  1  0
 16 17  2  0
 18 16  1  0
 18 19  1  0
 20 22  1  0
 20  1  1  0
 21 20  2  0
 22 25  1  1
 23 22  1  0
 24 22  1  0
 26 27  1  1
 26 18  1  0
 28 26  1  0
 29 26  1  0
M  END
$$$$
