-47.84153084
     RDKit          3D

 32 32  0  0  1  0  0  0  0  0999 V2000
    2.0036    0.1613   -0.0906 N   0  0  0  0  0  0  0  0  0  0  0  0
    0.6415    0.6154   -0.2430 C   0  0  2  0  0  0  0  0  0  0  0  0
    0.5907    2.1167   -0.5370 C   0  0  0  0  0  0  0  0  0  0  0  0
    0.0350    2.5373   -1.5312 O   0  0  0  0  0  0  0  0  0  0  0  0
   -0.2559    0.2572    0.9784 C   0  0  2  0  0  0  0  0  0  0  0  0
   -1.4553   -0.5539    0.5703 C   0  0  0  0  0  0  0  0  0  0  0  0
   -2.3509   -0.0430   -0.3628 C   0  0  0  0  0  0  0  0  0  0  0  0
   -1.6825   -1.8162    1.1012 C   0  0  0  0  0  0  0  0  0  0  0  0
   -3.4496   -0.7840   -0.7577 C   0  0  0  0  0  0  0  0  0  0  0  0
   -2.7830   -2.5579    0.7064 C   0  0  0  0  0  0  0  0  0  0  0  0
   -3.6678   -2.0439   -0.2248 C   0  0  0  0  0  0  0  0  0  0  0  0
    2.6969    0.8285    0.2145 H   0  0  0  0  0  0  0  0  0  0  0  0
    0.2155    0.1378   -1.1325 H   0  0  0  0  0  0  0  0  0  0  0  0
   -0.6048    1.1738    1.4608 H   0  0  0  0  0  0  0  0  0  0  0  0
    0.3393   -0.3038    1.7024 H   0  0  0  0  0  0  0  0  0  0  0  0
   -2.1800    0.9375   -0.7832 H   0  0  0  0  0  0  0  0  0  0  0  0
   -0.9967   -2.2233    1.8319 H   0  0  0  0  0  0  0  0  0  0  0  0
   -4.1378   -0.3770   -1.4834 H   0  0  0  0  0  0  0  0  0  0  0  0
   -2.9465   -3.5395    1.1262 H   0  0  0  0  0  0  0  0  0  0  0  0
   -4.5252   -2.6227   -0.5344 H   0  0  0  0  0  0  0  0  0  0  0  0
    1.1541    2.9722    0.3421 N   0  0  0  0  0  0  0  0  0  0  0  0
    1.0888    3.9398    0.0531 H   0  0  0  0  0  0  0  0  0  0  0  0
    1.8261    2.7449    1.5987 C   0  0  1  0  0  0  0  0  0  0  0  0
    1.4283    3.4301    2.3502 H   0  0  0  0  0  0  0  0  0  0  0  0
    1.6712    1.7285    1.9469 H   0  0  0  0  0  0  0  0  0  0  0  0
    2.9007    2.9310    1.5049 H   0  0  0  0  0  0  0  0  0  0  0  0
    2.5079   -1.0694   -0.3686 C   0  0  0  0  0  0  0  0  0  0  0  0
    3.6846   -1.2957   -0.1794 O   0  0  0  0  0  0  0  0  0  0  0  0
    1.5369   -2.0911   -0.9054 C   0  0  2  0  0  0  0  0  0  0  0  0
    2.0495   -3.0449   -0.9905 H   0  0  0  0  0  0  0  0  0  0  0  0
    1.1923   -1.7866   -1.8920 H   0  0  0  0  0  0  0  0  0  0  0  0
    0.6735   -2.1957   -0.2543 H   0  0  0  0  0  0  0  0  0  0  0  0
  1 12  1  0
  2 13  1  6
  2  1  1  0
  2  5  1  0
  3  2  1  0
  3 21  1  0
  4  3  2  0
  5 14  1  1
  5 15  1  0
  6  5  1  0
  6  8  2  0
  7  6  1  0
  8 17  1  0
  9  7  2  0
  9 11  1  0
 10  8  1  0
 10 19  1  0
 11 10  2  0
 16  7  1  0
 18  9  1  0
 20 11  1  0
 21 23  1  0
 22 21  1  0
 23 25  1  1
 23 24  1  0
 26 23  1  0
 27 28  2  0
 27  1  1  0
 29 27  1  0
 29 32  1  1
 30 29  1  0
 31 29  1  0
M  END
$$$$
