-42.53674118
     RDKit          3D

 29 28  0  0  1  0  0  0  0  0999 V2000
    1.4785   -0.5616   -0.0438 N   0  0  0  0  0  0  0  0  0  0  0  0
    1.2340   -1.2677    0.6322 H   0  0  0  0  0  0  0  0  0  0  0  0
    0.4240    0.3506   -0.4379 C   0  0  1  0  0  0  0  0  0  0  0  0
    0.8205    0.9322   -1.2727 H   0  0  0  0  0  0  0  0  0  0  0  0
   -0.8317   -0.3963   -0.9136 C   0  0  2  0  0  0  0  0  0  0  0  0
   -0.6056   -0.9068   -1.8522 H   0  0  0  0  0  0  0  0  0  0  0  0
   -1.5997    0.3535   -1.1169 H   0  0  0  0  0  0  0  0  0  0  0  0
   -1.3654   -1.4074    0.0928 C   0  0  2  0  0  0  0  0  0  0  0  0
   -1.4411   -0.9688    1.0871 H   0  0  0  0  0  0  0  0  0  0  0  0
   -0.7396   -2.2988    0.1267 H   0  0  0  0  0  0  0  0  0  0  0  0
   -3.0192   -2.0187   -0.3687 S   0  0  0  0  0  0  0  0  0  0  0  0
   -4.0327   -0.6368    0.2265 C   0  0  2  0  0  0  0  0  0  0  0  0
   -3.8516    0.2483   -0.3769 H   0  0  0  0  0  0  0  0  0  0  0  0
   -3.7950   -0.4435    1.2685 H   0  0  0  0  0  0  0  0  0  0  0  0
   -5.0686   -0.9433    0.1281 H   0  0  0  0  0  0  0  0  0  0  0  0
    0.1117    1.2739    0.7497 C   0  0  0  0  0  0  0  0  0  0  0  0
   -0.4339    0.8643    1.7603 O   0  0  0  0  0  0  0  0  0  0  0  0
    0.4921    2.5578    0.6452 N   0  0  0  0  0  0  0  0  0  0  0  0
    0.2723    3.1189    1.4569 H   0  0  0  0  0  0  0  0  0  0  0  0
    2.7818   -0.3023   -0.3012 C   0  0  0  0  0  0  0  0  0  0  0  0
    3.1398    0.6529   -0.9612 O   0  0  0  0  0  0  0  0  0  0  0  0
    3.7314   -1.3223    0.2842 C   0  0  2  0  0  0  0  0  0  0  0  0
    3.4561   -2.3232   -0.0395 H   0  0  0  0  0  0  0  0  0  0  0  0
    3.6909   -1.2820    1.3708 H   0  0  0  0  0  0  0  0  0  0  0  0
    4.7427   -1.1008   -0.0432 H   0  0  0  0  0  0  0  0  0  0  0  0
    1.2229    3.2057   -0.4225 C   0  0  1  0  0  0  0  0  0  0  0  0
    2.0792    2.6028   -0.7311 H   0  0  0  0  0  0  0  0  0  0  0  0
    0.5789    3.3869   -1.2874 H   0  0  0  0  0  0  0  0  0  0  0  0
    1.5886    4.1628   -0.0596 H   0  0  0  0  0  0  0  0  0  0  0  0
  1  2  1  0
  3  4  1  6
  3  1  1  0
  3 16  1  0
  5  3  1  0
  5  8  1  0
  5  6  1  6
  7  5  1  0
  8 10  1  1
  8  9  1  0
 11  8  1  0
 11 12  1  0
 12 14  1  1
 13 12  1  0
 15 12  1  0
 16 17  2  0
 18 16  1  0
 18 19  1  0
 20  1  1  0
 20 22  1  0
 21 20  2  0
 22 24  1  1
 23 22  1  0
 25 22  1  0
 26 29  1  1
 26 18  1  0
 27 26  1  0
 28 26  1  0
M  END
$$$$
