-42.54011792
     RDKit          3D

 29 28  0  0  1  0  0  0  0  0999 V2000
    1.5832   -0.8314    0.4242 N   0  0  0  0  0  0  0  0  0  0  0  0
    1.8320   -1.2949    1.2849 H   0  0  0  0  0  0  0  0  0  0  0  0
    0.2430   -0.2822    0.3648 C   0  0  1  0  0  0  0  0  0  0  0  0
    0.0909    0.0756   -0.6542 H   0  0  0  0  0  0  0  0  0  0  0  0
   -0.7895   -1.3553    0.7125 C   0  0  2  0  0  0  0  0  0  0  0  0
   -0.6332   -1.6689    1.7480 H   0  0  0  0  0  0  0  0  0  0  0  0
   -0.6427   -2.2196    0.0615 H   0  0  0  0  0  0  0  0  0  0  0  0
   -2.2122   -0.8291    0.5914 C   0  0  2  0  0  0  0  0  0  0  0  0
   -2.3825   -0.0275    1.3094 H   0  0  0  0  0  0  0  0  0  0  0  0
   -2.9366   -1.6246    0.7703 H   0  0  0  0  0  0  0  0  0  0  0  0
   -2.6014   -0.0853   -1.0273 S   0  0  0  0  0  0  0  0  0  0  0  0
   -2.4557   -1.5410   -2.1018 C   0  0  2  0  0  0  0  0  0  0  0  0
   -3.0457   -2.3535   -1.6873 H   0  0  0  0  0  0  0  0  0  0  0  0
   -1.4131   -1.8279   -2.2017 H   0  0  0  0  0  0  0  0  0  0  0  0
   -2.8504   -1.2516   -3.0698 H   0  0  0  0  0  0  0  0  0  0  0  0
    0.1547    0.8673    1.3803 C   0  0  0  0  0  0  0  0  0  0  0  0
    0.1622    0.6423    2.5783 O   0  0  0  0  0  0  0  0  0  0  0  0
    0.1152    2.1160    0.8942 N   0  0  0  0  0  0  0  0  0  0  0  0
    0.0591    2.8391    1.5979 H   0  0  0  0  0  0  0  0  0  0  0  0
    2.5570   -0.4479   -0.4349 C   0  0  0  0  0  0  0  0  0  0  0  0
    2.3425    0.2759   -1.3859 O   0  0  0  0  0  0  0  0  0  0  0  0
    3.9149   -1.0318   -0.1134 C   0  0  2  0  0  0  0  0  0  0  0  0
    4.2849   -0.6039    0.8163 H   0  0  0  0  0  0  0  0  0  0  0  0
    4.6076   -0.7924   -0.9147 H   0  0  0  0  0  0  0  0  0  0  0  0
    3.8480   -2.1110    0.0004 H   0  0  0  0  0  0  0  0  0  0  0  0
    0.1160    2.5370   -0.4906 C   0  0  1  0  0  0  0  0  0  0  0  0
   -0.8343    2.2943   -0.9734 H   0  0  0  0  0  0  0  0  0  0  0  0
    0.2593    3.6138   -0.5241 H   0  0  0  0  0  0  0  0  0  0  0  0
    0.9303    2.0608   -1.0399 H   0  0  0  0  0  0  0  0  0  0  0  0
  1  2  1  0
  3  4  1  6
  3  1  1  0
  3  5  1  0
  3 16  1  0
  5  6  1  1
  7  5  1  0
  8  5  1  0
  8 10  1  1
  8  9  1  0
 11  8  1  0
 12 13  1  1
 12 11  1  0
 14 12  1  0
 15 12  1  0
 16 17  2  0
 18 16  1  0
 18 19  1  0
 20 22  1  0
 20  1  1  0
 21 20  2  0
 22 25  1  1
 22 23  1  0
 24 22  1  0
 26 18  1  0
 26 27  1  6
 28 26  1  0
 29 26  1  0
M  END
$$$$
