-47.84719656
     RDKit          3D

 32 32  0  0  1  0  0  0  0  0999 V2000
    1.6614   -0.2470    0.3779 N   0  0  0  0  0  0  0  0  0  0  0  0
    0.9807    0.4032   -0.7068 C   0  0  2  0  0  0  0  0  0  0  0  0
    0.3296    1.6661   -0.1286 C   0  0  0  0  0  0  0  0  0  0  0  0
    0.1646    1.7965    1.0667 O   0  0  0  0  0  0  0  0  0  0  0  0
   -0.1263   -0.5058   -1.3076 C   0  0  2  0  0  0  0  0  0  0  0  0
   -1.2447   -0.7004   -0.3223 C   0  0  0  0  0  0  0  0  0  0  0  0
   -2.3953    0.0730   -0.3960 C   0  0  0  0  0  0  0  0  0  0  0  0
   -1.1215   -1.6267    0.7055 C   0  0  0  0  0  0  0  0  0  0  0  0
   -3.4027   -0.0721    0.5407 C   0  0  0  0  0  0  0  0  0  0  0  0
   -2.1266   -1.7699    1.6449 C   0  0  0  0  0  0  0  0  0  0  0  0
   -3.2687   -0.9921    1.5658 C   0  0  0  0  0  0  0  0  0  0  0  0
    1.2684   -0.0398    1.2913 H   0  0  0  0  0  0  0  0  0  0  0  0
    1.7007    0.6701   -1.4872 H   0  0  0  0  0  0  0  0  0  0  0  0
    0.3211   -1.4702   -1.5554 H   0  0  0  0  0  0  0  0  0  0  0  0
   -0.5057   -0.0546   -2.2251 H   0  0  0  0  0  0  0  0  0  0  0  0
   -2.5071    0.7943   -1.1941 H   0  0  0  0  0  0  0  0  0  0  0  0
   -0.2317   -2.2355    0.7741 H   0  0  0  0  0  0  0  0  0  0  0  0
   -4.2922    0.5369    0.4717 H   0  0  0  0  0  0  0  0  0  0  0  0
   -2.0154   -2.4893    2.4425 H   0  0  0  0  0  0  0  0  0  0  0  0
   -4.0523   -1.1019    2.3006 H   0  0  0  0  0  0  0  0  0  0  0  0
   -0.0578    2.6294   -0.9882 N   0  0  0  0  0  0  0  0  0  0  0  0
   -0.5315    3.4024   -0.5395 H   0  0  0  0  0  0  0  0  0  0  0  0
    0.0101    2.6789   -2.4262 C   0  0  1  0  0  0  0  0  0  0  0  0
    0.8260    2.0628   -2.7970 H   0  0  0  0  0  0  0  0  0  0  0  0
   -0.9236    2.3376   -2.8843 H   0  0  0  0  0  0  0  0  0  0  0  0
    0.1881    3.7076   -2.7394 H   0  0  0  0  0  0  0  0  0  0  0  0
    2.7296   -1.0741    0.3461 C   0  0  0  0  0  0  0  0  0  0  0  0
    3.1598   -1.5816    1.3599 O   0  0  0  0  0  0  0  0  0  0  0  0
    3.3545   -1.3130   -1.0150 C   0  0  2  0  0  0  0  0  0  0  0  0
    3.7590   -0.3817   -1.4070 H   0  0  0  0  0  0  0  0  0  0  0  0
    2.6275   -1.7079   -1.7199 H   0  0  0  0  0  0  0  0  0  0  0  0
    4.1652   -2.0266   -0.8996 H   0  0  0  0  0  0  0  0  0  0  0  0
  1 12  1  0
  2 13  1  6
  2  3  1  0
  2  1  1  0
  3  4  2  0
  5  2  1  0
  5  6  1  0
  6  8  1  0
  7  6  2  0
  7  9  1  0
  8 17  1  0
  8 10  2  0
  9 11  2  0
 10 19  1  0
 11 10  1  0
 11 20  1  0
  5 14  1  6
 15  5  1  0
 16  7  1  0
 18  9  1  0
 21 22  1  0
 21  3  1  0
 23 21  1  0
 23 24  1  6
 25 23  1  0
 26 23  1  0
 27  1  1  0
 27 28  2  0
 29 32  1  1
 29 27  1  0
 30 29  1  0
 31 29  1  0
M  END
$$$$
