-42.53962813
     RDKit          3D

 29 28  0  0  1  0  0  0  0  0999 V2000
    0.8842   -0.5188   -0.1792 N   0  0  0  0  0  0  0  0  0  0  0  0
    0.3678   -1.3188    0.1694 H   0  0  0  0  0  0  0  0  0  0  0  0
    0.1094    0.5095   -0.8428 C   0  0  1  0  0  0  0  0  0  0  0  0
    0.7760    0.9857   -1.5674 H   0  0  0  0  0  0  0  0  0  0  0  0
   -1.0748   -0.0993   -1.6090 C   0  0  2  0  0  0  0  0  0  0  0  0
   -0.6766   -0.8549   -2.2909 H   0  0  0  0  0  0  0  0  0  0  0  0
   -1.5254    0.6945   -2.2110 H   0  0  0  0  0  0  0  0  0  0  0  0
   -2.1820   -0.7217   -0.7659 C   0  0  2  0  0  0  0  0  0  0  0  0
   -3.0135   -0.9985   -1.4150 H   0  0  0  0  0  0  0  0  0  0  0  0
   -2.5292   -0.0303   -0.0027 H   0  0  0  0  0  0  0  0  0  0  0  0
   -1.6753   -2.2548    0.1086 S   0  0  0  0  0  0  0  0  0  0  0  0
   -1.9394   -1.7449    1.8340 C   0  0  2  0  0  0  0  0  0  0  0  0
   -3.0048   -1.7457    2.0469 H   0  0  0  0  0  0  0  0  0  0  0  0
   -1.5197   -0.7534    1.9777 H   0  0  0  0  0  0  0  0  0  0  0  0
   -1.4359   -2.4729    2.4618 H   0  0  0  0  0  0  0  0  0  0  0  0
   -0.3261    1.5484    0.2014 C   0  0  0  0  0  0  0  0  0  0  0  0
   -1.1009    1.2782    1.1057 O   0  0  0  0  0  0  0  0  0  0  0  0
    0.1937    2.7811    0.0978 N   0  0  0  0  0  0  0  0  0  0  0  0
   -0.1003    3.4106    0.8323 H   0  0  0  0  0  0  0  0  0  0  0  0
    2.2082   -0.3948    0.0307 C   0  0  0  0  0  0  0  0  0  0  0  0
    2.8466    0.5721   -0.3437 O   0  0  0  0  0  0  0  0  0  0  0  0
    2.8159   -1.5692    0.7645 C   0  0  2  0  0  0  0  0  0  0  0  0
    3.8966   -1.4648    0.7806 H   0  0  0  0  0  0  0  0  0  0  0  0
    2.5443   -2.5019    0.2764 H   0  0  0  0  0  0  0  0  0  0  0  0
    2.4446   -1.5896    1.7871 H   0  0  0  0  0  0  0  0  0  0  0  0
    1.2206    3.2587   -0.8028 C   0  0  1  0  0  0  0  0  0  0  0  0
    2.0771    2.5802   -0.8017 H   0  0  0  0  0  0  0  0  0  0  0  0
    0.8344    3.3594   -1.8203 H   0  0  0  0  0  0  0  0  0  0  0  0
    1.5508    4.2366   -0.4626 H   0  0  0  0  0  0  0  0  0  0  0  0
  1 20  1  0
  1  2  1  0
  3  4  1  6
  3  1  1  0
  3 16  1  0
  5  3  1  0
  5  8  1  0
  5  6  1  6
  7  5  1  0
  8 10  1  1
  8 11  1  0
  9  8  1  0
 11 12  1  0
 12 14  1  6
 12 13  1  0
 12 15  1  0
 16 17  2  0
 18 16  1  0
 18 19  1  0
 20 22  1  0
 21 20  2  0
 22 23  1  1
 22 25  1  0
 24 22  1  0
 26 27  1  6
 26 29  1  0
 26 18  1  0
 28 26  1  0
M  END
$$$$
