-47.84570631
     RDKit          3D

 32 32  0  0  1  0  0  0  0  0999 V2000
    0.9278   -0.3200   -0.6821 N   0  0  0  0  0  0  0  0  0  0  0  0
    0.1986    0.8678   -0.2913 C   0  0  2  0  0  0  0  0  0  0  0  0
    1.0893    2.1151   -0.2088 C   0  0  0  0  0  0  0  0  0  0  0  0
    1.1322    2.8245    0.7749 O   0  0  0  0  0  0  0  0  0  0  0  0
   -0.5819    0.6658    1.0242 C   0  0  2  0  0  0  0  0  0  0  0  0
   -1.6312   -0.3916    0.8410 C   0  0  0  0  0  0  0  0  0  0  0  0
   -1.3378   -1.7284    1.0811 C   0  0  0  0  0  0  0  0  0  0  0  0
   -2.8968   -0.0548    0.3765 C   0  0  0  0  0  0  0  0  0  0  0  0
   -2.2915   -2.7076    0.8644 C   0  0  0  0  0  0  0  0  0  0  0  0
   -3.8521   -1.0322    0.1624 C   0  0  0  0  0  0  0  0  0  0  0  0
   -3.5506   -2.3618    0.4046 C   0  0  0  0  0  0  0  0  0  0  0  0
    0.3997   -0.9933   -1.2221 H   0  0  0  0  0  0  0  0  0  0  0  0
   -0.5335    1.0645   -1.0868 H   0  0  0  0  0  0  0  0  0  0  0  0
   -1.0322    1.6203    1.2982 H   0  0  0  0  0  0  0  0  0  0  0  0
    0.1114    0.3789    1.8148 H   0  0  0  0  0  0  0  0  0  0  0  0
   -0.3568   -2.0054    1.4400 H   0  0  0  0  0  0  0  0  0  0  0  0
   -3.1357    0.9829    0.1890 H   0  0  0  0  0  0  0  0  0  0  0  0
   -2.0498   -3.7427    1.0553 H   0  0  0  0  0  0  0  0  0  0  0  0
   -4.8340   -0.7560   -0.1933 H   0  0  0  0  0  0  0  0  0  0  0  0
   -4.2958   -3.1254    0.2377 H   0  0  0  0  0  0  0  0  0  0  0  0
    1.7895    2.4217   -1.3198 N   0  0  0  0  0  0  0  0  0  0  0  0
    2.3762    3.2391   -1.2248 H   0  0  0  0  0  0  0  0  0  0  0  0
    1.8554    1.7097   -2.5725 C   0  0  1  0  0  0  0  0  0  0  0  0
    2.2362    2.3829   -3.3378 H   0  0  0  0  0  0  0  0  0  0  0  0
    2.5146    0.8397   -2.5108 H   0  0  0  0  0  0  0  0  0  0  0  0
    0.8650    1.3696   -2.8742 H   0  0  0  0  0  0  0  0  0  0  0  0
    2.0699   -0.8505   -0.1655 C   0  0  0  0  0  0  0  0  0  0  0  0
    2.4101   -1.9672   -0.4994 O   0  0  0  0  0  0  0  0  0  0  0  0
    2.9032    0.0142    0.7473 C   0  0  2  0  0  0  0  0  0  0  0  0
    3.4858    0.7134    0.1498 H   0  0  0  0  0  0  0  0  0  0  0  0
    3.5940   -0.6277    1.2884 H   0  0  0  0  0  0  0  0  0  0  0  0
    2.3023    0.5820    1.4496 H   0  0  0  0  0  0  0  0  0  0  0  0
  1  2  1  0
  1 27  1  0
  2 13  1  6
  2  3  1  0
  2  5  1  0
  3  4  2  0
  5 14  1  1
  5 15  1  0
  6  5  1  0
  6  7  2  0
  7 16  1  0
  8  6  1  0
  9 18  1  0
  9  7  1  0
 10  8  2  0
 10 11  1  0
 11  9  2  0
 12  1  1  0
 17  8  1  0
 19 10  1  0
 20 11  1  0
 21 22  1  0
 21  3  1  0
 23 25  1  1
 23 21  1  0
 24 23  1  0
 26 23  1  0
 27 29  1  0
 28 27  2  0
 29 31  1  1
 29 32  1  0
 30 29  1  0
M  END
$$$$
