-47.84569392
     RDKit          3D

 32 32  0  0  1  0  0  0  0  0999 V2000
    0.8039   -0.1810   -0.8388 N   0  0  0  0  0  0  0  0  0  0  0  0
    0.2430    0.9261   -0.0935 C   0  0  2  0  0  0  0  0  0  0  0  0
    1.2693    2.0292    0.1993 C   0  0  0  0  0  0  0  0  0  0  0  0
    1.4678    2.4571    1.3174 O   0  0  0  0  0  0  0  0  0  0  0  0
   -0.4460    0.4653    1.2079 C   0  0  2  0  0  0  0  0  0  0  0  0
   -1.5807   -0.4637    0.8882 C   0  0  0  0  0  0  0  0  0  0  0  0
   -2.8491    0.0376    0.6229 C   0  0  0  0  0  0  0  0  0  0  0  0
   -1.3682   -1.8340    0.8002 C   0  0  0  0  0  0  0  0  0  0  0  0
   -3.8859   -0.8129    0.2829 C   0  0  0  0  0  0  0  0  0  0  0  0
   -2.4036   -2.6857    0.4570 C   0  0  0  0  0  0  0  0  0  0  0  0
   -3.6647   -2.1772    0.1976 C   0  0  0  0  0  0  0  0  0  0  0  0
    0.1644   -0.6442   -1.4715 H   0  0  0  0  0  0  0  0  0  0  0  0
   -0.5247    1.3805   -0.7349 H   0  0  0  0  0  0  0  0  0  0  0  0
   -0.8024    1.3527    1.7318 H   0  0  0  0  0  0  0  0  0  0  0  0
    0.2836   -0.0334    1.8459 H   0  0  0  0  0  0  0  0  0  0  0  0
   -3.0255    1.1022    0.6911 H   0  0  0  0  0  0  0  0  0  0  0  0
   -0.3861   -2.2377    1.0010 H   0  0  0  0  0  0  0  0  0  0  0  0
   -4.8688   -0.4106    0.0847 H   0  0  0  0  0  0  0  0  0  0  0  0
   -2.2240   -3.7486    0.3923 H   0  0  0  0  0  0  0  0  0  0  0  0
   -4.4735   -2.8416   -0.0679 H   0  0  0  0  0  0  0  0  0  0  0  0
    1.9097    2.5472   -0.8685 N   0  0  0  0  0  0  0  0  0  0  0  0
    2.5900    3.2576   -0.6363 H   0  0  0  0  0  0  0  0  0  0  0  0
    1.8023    2.1728   -2.2573 C   0  0  1  0  0  0  0  0  0  0  0  0
    0.7617    1.9981   -2.5291 H   0  0  0  0  0  0  0  0  0  0  0  0
    2.1864    2.9862   -2.8696 H   0  0  0  0  0  0  0  0  0  0  0  0
    2.3732    1.2670   -2.4789 H   0  0  0  0  0  0  0  0  0  0  0  0
    1.9175   -0.9235   -0.5919 C   0  0  0  0  0  0  0  0  0  0  0  0
    2.1057   -1.9411   -1.2269 O   0  0  0  0  0  0  0  0  0  0  0  0
    2.9098   -0.3994    0.4160 C   0  0  2  0  0  0  0  0  0  0  0  0
    3.5185    0.3760   -0.0462 H   0  0  0  0  0  0  0  0  0  0  0  0
    3.5647   -1.2170    0.7067 H   0  0  0  0  0  0  0  0  0  0  0  0
    2.4320    0.0193    1.2952 H   0  0  0  0  0  0  0  0  0  0  0  0
  1 27  1  0
  1  2  1  0
  2 13  1  6
  2  3  1  0
  2  5  1  0
  3  4  2  0
  5 14  1  1
  5 15  1  0
  6  5  1  0
  7 16  1  0
  7  6  2  0
  8  6  1  0
  8 17  1  0
  9  7  1  0
 10  8  2  0
 11  9  2  0
 11 10  1  0
 12  1  1  0
 18  9  1  0
 19 10  1  0
 20 11  1  0
 21 22  1  0
 21  3  1  0
 23 21  1  0
 23 24  1  6
 25 23  1  0
 26 23  1  0
 27 29  1  0
 28 27  2  0
 29 31  1  1
 29 32  1  0
 30 29  1  0
M  END
$$$$
