 energy: -91.991156968141 gnorm: 0.000028386870 xtb: 6.5.1 (9af7eec)
     RDKit          3D

 56 59  0  0  0  0  0  0  0  0999 V2000
    3.7724    2.7033   -0.0088 C   0  0  1  0  0  0  0  0  0  0  0  0
    4.0334    1.7176   -1.0368 N   0  0  0  0  0  0  0  0  0  0  0  0
    3.7383    2.2414   -2.3573 C   0  0  1  0  0  0  0  0  0  0  0  0
    5.3922    1.1950   -0.9661 C   0  0  1  0  0  0  0  0  0  0  0  0
    5.6046    0.2257    0.2010 C   0  0  1  0  0  0  0  0  0  0  0  0
    4.4773   -0.8194    0.3180 C   0  0  1  0  0  0  0  0  0  0  0  0
    3.7934   -1.1026   -0.9251 N   0  0  0  0  0  0  0  0  0  0  0  0
    4.6771   -1.8376   -2.1444 S   0  0  1  0  0  6  0  0  0  0  0  0
    4.4284   -1.1138   -3.3638 O   0  0  0  0  0  0  0  0  0  0  0  0
    6.0383   -2.0429   -1.7334 O   0  0  0  0  0  0  0  0  0  0  0  0
    3.8557   -3.4178   -2.2314 C   0  0  0  0  0  0  0  0  0  0  0  0
    2.7339   -3.5591   -3.0265 C   0  0  0  0  0  0  0  0  0  0  0  0
    2.0697   -4.7680   -3.0583 C   0  0  0  0  0  0  0  0  0  0  0  0
    2.5209   -5.8435   -2.2849 C   0  0  0  0  0  0  0  0  0  0  0  0
    3.6580   -5.6854   -1.4901 C   0  0  0  0  0  0  0  0  0  0  0  0
    4.3188   -4.4724   -1.4684 C   0  0  0  0  0  0  0  0  0  0  0  0
    1.8159   -7.0298   -2.3582 N   0  0  0  0  0  0  0  0  0  0  0  0
    1.9667   -8.2065   -1.6893 C   0  0  0  0  0  0  0  0  0  0  0  0
    1.0944   -9.1508   -2.0708 N   0  0  0  0  0  0  0  0  0  0  0  0
    1.1857  -10.3186   -1.4638 C   0  0  0  0  0  0  0  0  0  0  0  0
    2.1195  -10.5830   -0.4750 C   0  0  0  0  0  0  0  0  0  0  0  0
    2.9752   -9.5302   -0.1393 C   0  0  0  0  0  0  0  0  0  0  0  0
    2.8945   -8.3465   -0.7531 N   0  0  0  0  0  0  0  0  0  0  0  0
    3.9901   -9.6264    0.8827 C   0  0  0  0  0  0  0  0  0  0  0  0
    4.8530   -8.6366    1.3530 C   0  0  0  0  0  0  0  0  0  0  0  0
    5.6559   -9.0911    2.3152 N   0  0  0  0  0  0  0  0  0  0  0  0
    5.3350  -10.3650    2.4834 C   0  0  0  0  0  0  0  0  0  0  0  0
    4.3040  -10.7336    1.6144 N   0  0  0  0  0  0  0  0  0  0  0  0
    3.7760  -11.9430    1.5560 N   0  0  0  0  0  0  0  0  0  0  0  0
    4.2596  -12.8378    2.3686 C   0  0  0  0  0  0  0  0  0  0  0  0
    5.2963  -12.5929    3.2907 C   0  0  0  0  0  0  0  0  0  0  0  0
    5.8431  -11.3371    3.3497 C   0  0  0  0  0  0  0  0  0  0  0  0
    2.7316    3.0189   -0.0729 H   0  0  0  0  0  0  0  0  0  0  0  0
    3.9380    2.2605    0.9710 H   0  0  0  0  0  0  0  0  0  0  0  0
    4.4144    3.5934   -0.1048 H   0  0  0  0  0  0  0  0  0  0  0  0
    2.6962    2.5597   -2.3866 H   0  0  0  0  0  0  0  0  0  0  0  0
    4.3725    3.1005   -2.6236 H   0  0  0  0  0  0  0  0  0  0  0  0
    3.8864    1.4531   -3.0949 H   0  0  0  0  0  0  0  0  0  0  0  0
    5.5849    0.6506   -1.8931 H   0  0  0  0  0  0  0  0  0  0  0  0
    6.1347    2.0091   -0.8960 H   0  0  0  0  0  0  0  0  0  0  0  0
    6.5495   -0.2859    0.0185 H   0  0  0  0  0  0  0  0  0  0  0  0
    5.6865    0.7651    1.1460 H   0  0  0  0  0  0  0  0  0  0  0  0
    4.8855   -1.7633    0.6832 H   0  0  0  0  0  0  0  0  0  0  0  0
    3.7131   -0.4756    1.0197 H   0  0  0  0  0  0  0  0  0  0  0  0
    3.3654   -0.2514   -1.2758 H   0  0  0  0  0  0  0  0  0  0  0  0
    2.4087   -2.7197   -3.6196 H   0  0  0  0  0  0  0  0  0  0  0  0
    1.1961   -4.8905   -3.6824 H   0  0  0  0  0  0  0  0  0  0  0  0
    4.0016   -6.5227   -0.9077 H   0  0  0  0  0  0  0  0  0  0  0  0
    5.2085   -4.3315   -0.8756 H   0  0  0  0  0  0  0  0  0  0  0  0
    1.0472   -7.0571   -3.0160 H   0  0  0  0  0  0  0  0  0  0  0  0
    0.4761  -11.0697   -1.7868 H   0  0  0  0  0  0  0  0  0  0  0  0
    2.1853  -11.5388    0.0125 H   0  0  0  0  0  0  0  0  0  0  0  0
    4.9047   -7.6183    1.0237 H   0  0  0  0  0  0  0  0  0  0  0  0
    3.8011  -13.8119    2.2894 H   0  0  0  0  0  0  0  0  0  0  0  0
    5.6422  -13.3876    3.9307 H   0  0  0  0  0  0  0  0  0  0  0  0
    6.6380  -11.0715    4.0270 H   0  0  0  0  0  0  0  0  0  0  0  0
  1  2  1  0
  2  3  1  0
  2  4  1  0
  4  5  1  0
  5  6  1  0
  6  7  1  0
  8  7  1  1
  8  9  2  0
  8 10  2  0
  8 11  1  0
 11 12  2  0
 12 13  1  0
 13 14  2  0
 14 15  1  0
 15 16  2  0
 14 17  1  0
 17 18  1  0
 18 19  2  0
 19 20  1  0
 20 21  2  0
 21 22  1  0
 22 23  2  0
 22 24  1  0
 24 25  2  0
 25 26  1  0
 26 27  2  0
 27 28  1  0
 28 29  1  0
 29 30  2  0
 30 31  1  0
 31 32  2  0
 16 11  1  0
 23 18  1  0
 28 24  1  0
 32 27  1  0
  1 33  1  1
  1 34  1  0
  1 35  1  0
  3 36  1  1
  3 37  1  0
  3 38  1  0
  4 39  1  6
  4 40  1  0
  5 41  1  6
  5 42  1  0
  6 43  1  1
  6 44  1  0
  7 45  1  0
 12 46  1  0
 13 47  1  0
 15 48  1  0
 16 49  1  0
 17 50  1  0
 20 51  1  0
 21 52  1  0
 25 53  1  0
 30 54  1  0
 31 55  1  0
 32 56  1  0
M  END
$$$$
