 energy: -91.991178579053 gnorm: 0.000016535398 xtb: 6.5.1 (9af7eec)
     RDKit          3D

 56 59  0  0  0  0  0  0  0  0999 V2000
    2.5940    1.7565   -3.6132 C   0  0  1  0  0  0  0  0  0  0  0  0
    3.7399    1.9435   -2.7456 N   0  0  0  0  0  0  0  0  0  0  0  0
    4.4806    3.1311   -3.1191 C   0  0  1  0  0  0  0  0  0  0  0  0
    3.3357    1.9635   -1.3496 C   0  0  1  0  0  0  0  0  0  0  0  0
    4.4931    1.6933   -0.3898 C   0  0  1  0  0  0  0  0  0  0  0  0
    3.9892    1.5133    1.0457 C   0  0  1  0  0  0  0  0  0  0  0  0
    3.0835    0.3946    1.1696 N   0  0  0  0  0  0  0  0  0  0  0  0
    1.6211    0.5829    1.9494 S   0  0  1  0  0  6  0  0  0  0  0  0
    1.2880   -0.6974    2.5035 O   0  0  0  0  0  0  0  0  0  0  0  0
    1.6639    1.7340    2.8060 O   0  0  0  0  0  0  0  0  0  0  0  0
    0.5672    0.9313    0.5565 C   0  0  0  0  0  0  0  0  0  0  0  0
    0.0947   -0.1163   -0.2110 C   0  0  0  0  0  0  0  0  0  0  0  0
   -0.5863    0.1514   -1.3820 C   0  0  0  0  0  0  0  0  0  0  0  0
   -0.7695    1.4722   -1.8029 C   0  0  0  0  0  0  0  0  0  0  0  0
   -0.3310    2.5188   -0.9896 C   0  0  0  0  0  0  0  0  0  0  0  0
    0.3360    2.2427    0.1878 C   0  0  0  0  0  0  0  0  0  0  0  0
   -1.4052    1.7019   -3.0120 N   0  0  0  0  0  0  0  0  0  0  0  0
   -1.2529    2.7624   -3.8538 C   0  0  0  0  0  0  0  0  0  0  0  0
   -1.9717    2.6895   -4.9798 N   0  0  0  0  0  0  0  0  0  0  0  0
   -1.8323    3.6901   -5.8309 C   0  0  0  0  0  0  0  0  0  0  0  0
   -0.9786    4.7584   -5.6092 C   0  0  0  0  0  0  0  0  0  0  0  0
   -0.2584    4.7304   -4.4115 C   0  0  0  0  0  0  0  0  0  0  0  0
   -0.4124    3.7363   -3.5341 N   0  0  0  0  0  0  0  0  0  0  0  0
    0.7096    5.7276   -4.0266 C   0  0  0  0  0  0  0  0  0  0  0  0
    1.4902    5.7715   -2.8717 C   0  0  0  0  0  0  0  0  0  0  0  0
    2.3026    6.8292   -2.8601 N   0  0  0  0  0  0  0  0  0  0  0  0
    2.0647    7.4807   -3.9888 C   0  0  0  0  0  0  0  0  0  0  0  0
    1.0825    6.8279   -4.7390 N   0  0  0  0  0  0  0  0  0  0  0  0
    0.6366    7.2448   -5.9100 N   0  0  0  0  0  0  0  0  0  0  0  0
    1.1576    8.3406   -6.3819 C   0  0  0  0  0  0  0  0  0  0  0  0
    2.1528    9.0912   -5.7249 C   0  0  0  0  0  0  0  0  0  0  0  0
    2.6149    8.6552   -4.5099 C   0  0  0  0  0  0  0  0  0  0  0  0
    2.9351    1.7200   -4.6472 H   0  0  0  0  0  0  0  0  0  0  0  0
    2.1145    0.8082   -3.3727 H   0  0  0  0  0  0  0  0  0  0  0  0
    1.8464    2.5589   -3.5158 H   0  0  0  0  0  0  0  0  0  0  0  0
    4.7838    3.0452   -4.1618 H   0  0  0  0  0  0  0  0  0  0  0  0
    3.8921    4.0544   -2.9991 H   0  0  0  0  0  0  0  0  0  0  0  0
    5.3775    3.2074   -2.5091 H   0  0  0  0  0  0  0  0  0  0  0  0
    2.8534    2.9205   -1.0831 H   0  0  0  0  0  0  0  0  0  0  0  0
    2.6008    1.1685   -1.2089 H   0  0  0  0  0  0  0  0  0  0  0  0
    5.0121    0.7910   -0.7151 H   0  0  0  0  0  0  0  0  0  0  0  0
    5.2034    2.5202   -0.3966 H   0  0  0  0  0  0  0  0  0  0  0  0
    4.8437    1.4027    1.7234 H   0  0  0  0  0  0  0  0  0  0  0  0
    3.4248    2.3939    1.3594 H   0  0  0  0  0  0  0  0  0  0  0  0
    3.5013   -0.5047    1.3325 H   0  0  0  0  0  0  0  0  0  0  0  0
    0.2714   -1.1259    0.1232 H   0  0  0  0  0  0  0  0  0  0  0  0
   -0.9603   -0.6588   -1.9910 H   0  0  0  0  0  0  0  0  0  0  0  0
   -0.5067    3.5341   -1.3005 H   0  0  0  0  0  0  0  0  0  0  0  0
    0.6835    3.0314    0.8358 H   0  0  0  0  0  0  0  0  0  0  0  0
   -1.9273    0.9370   -3.4176 H   0  0  0  0  0  0  0  0  0  0  0  0
   -2.4278    3.6210   -6.7322 H   0  0  0  0  0  0  0  0  0  0  0  0
   -0.8648    5.5617   -6.3147 H   0  0  0  0  0  0  0  0  0  0  0  0
    1.4733    5.0691   -2.0621 H   0  0  0  0  0  0  0  0  0  0  0  0
    0.7667    8.6488   -7.3397 H   0  0  0  0  0  0  0  0  0  0  0  0
    2.5337    9.9897   -6.1813 H   0  0  0  0  0  0  0  0  0  0  0  0
    3.3733    9.1740   -3.9471 H   0  0  0  0  0  0  0  0  0  0  0  0
  1  2  1  0
  2  3  1  0
  2  4  1  0
  4  5  1  0
  5  6  1  0
  6  7  1  0
  8  7  1  6
  8  9  2  0
  8 10  2  0
  8 11  1  0
 11 12  2  0
 12 13  1  0
 13 14  2  0
 14 15  1  0
 15 16  2  0
 14 17  1  0
 17 18  1  0
 18 19  2  0
 19 20  1  0
 20 21  2  0
 21 22  1  0
 22 23  2  0
 22 24  1  0
 24 25  2  0
 25 26  1  0
 26 27  2  0
 27 28  1  0
 28 29  1  0
 29 30  2  0
 30 31  1  0
 31 32  2  0
 16 11  1  0
 23 18  1  0
 28 24  1  0
 32 27  1  0
  1 33  1  6
  1 34  1  0
  1 35  1  0
  3 36  1  6
  3 37  1  0
  3 38  1  0
  4 39  1  1
  4 40  1  0
  5 41  1  6
  5 42  1  0
  6 43  1  1
  6 44  1  0
  7 45  1  0
 12 46  1  0
 13 47  1  0
 15 48  1  0
 16 49  1  0
 17 50  1  0
 20 51  1  0
 21 52  1  0
 25 53  1  0
 30 54  1  0
 31 55  1  0
 32 56  1  0
M  END
$$$$
