 energy: -91.992891298413 gnorm: 0.000028989406 xtb: 6.5.1 (9af7eec)
     RDKit          3D

 56 59  0  0  0  0  0  0  0  0999 V2000
    6.5934   -0.9635    2.9581 C   0  0  1  0  0  0  0  0  0  0  0  0
    5.4676   -0.4636    2.1979 N   0  0  0  0  0  0  0  0  0  0  0  0
    4.2395   -0.4845    2.9630 C   0  0  1  0  0  0  0  0  0  0  0  0
    5.7188    0.8038    1.5378 C   0  0  1  0  0  0  0  0  0  0  0  0
    6.2019    1.9738    2.4108 C   0  0  1  0  0  0  0  0  0  0  0  0
    6.2257    3.2832    1.6135 C   0  0  1  0  0  0  0  0  0  0  0  0
    4.9009    3.8418    1.4592 N   0  0  0  0  0  0  0  0  0  0  0  0
    4.2838    4.2323   -0.0466 S   0  0  1  0  0  6  0  0  0  0  0  0
    3.8001    5.5828    0.0095 O   0  0  0  0  0  0  0  0  0  0  0  0
    5.2449    3.8662   -1.0469 O   0  0  0  0  0  0  0  0  0  0  0  0
    2.9092    3.1037   -0.0790 C   0  0  0  0  0  0  0  0  0  0  0  0
    1.7191    3.4525    0.5302 C   0  0  0  0  0  0  0  0  0  0  0  0
    0.7385    2.4949    0.7010 C   0  0  0  0  0  0  0  0  0  0  0  0
    0.9700    1.1744    0.3032 C   0  0  0  0  0  0  0  0  0  0  0  0
    2.1505    0.8524   -0.3693 C   0  0  0  0  0  0  0  0  0  0  0  0
    3.1126    1.8248   -0.5599 C   0  0  0  0  0  0  0  0  0  0  0  0
    0.0109    0.2126    0.5836 N   0  0  0  0  0  0  0  0  0  0  0  0
    0.2319   -1.0989    0.8854 C   0  0  0  0  0  0  0  0  0  0  0  0
   -0.8535   -1.7768    1.2739 N   0  0  0  0  0  0  0  0  0  0  0  0
   -0.6626   -3.0382    1.6215 C   0  0  0  0  0  0  0  0  0  0  0  0
    0.5834   -3.6394    1.6163 C   0  0  0  0  0  0  0  0  0  0  0  0
    1.6542   -2.8433    1.1901 C   0  0  0  0  0  0  0  0  0  0  0  0
    1.4641   -1.5819    0.8150 N   0  0  0  0  0  0  0  0  0  0  0  0
    3.0117   -3.3345    1.1778 C   0  0  0  0  0  0  0  0  0  0  0  0
    3.5986   -4.3614    1.9127 C   0  0  0  0  0  0  0  0  0  0  0  0
    4.9108   -4.4494    1.6832 N   0  0  0  0  0  0  0  0  0  0  0  0
    5.1872   -3.4982    0.8007 C   0  0  0  0  0  0  0  0  0  0  0  0
    4.0395   -2.7850    0.4680 N   0  0  0  0  0  0  0  0  0  0  0  0
    3.9920   -1.8133   -0.4164 N   0  0  0  0  0  0  0  0  0  0  0  0
    5.1127   -1.4851   -0.9870 C   0  0  0  0  0  0  0  0  0  0  0  0
    6.3490   -2.1088   -0.7212 C   0  0  0  0  0  0  0  0  0  0  0  0
    6.3885   -3.1363    0.1824 C   0  0  0  0  0  0  0  0  0  0  0  0
    6.4087   -2.0084    3.2108 H   0  0  0  0  0  0  0  0  0  0  0  0
    7.4896   -0.9105    2.3418 H   0  0  0  0  0  0  0  0  0  0  0  0
    6.7718   -0.4099    3.8911 H   0  0  0  0  0  0  0  0  0  0  0  0
    4.0848   -1.4940    3.3451 H   0  0  0  0  0  0  0  0  0  0  0  0
    4.2431    0.2047    3.8205 H   0  0  0  0  0  0  0  0  0  0  0  0
    3.4078   -0.2302    2.3062 H   0  0  0  0  0  0  0  0  0  0  0  0
    6.4702    0.6214    0.7614 H   0  0  0  0  0  0  0  0  0  0  0  0
    4.7889    1.0989    1.0495 H   0  0  0  0  0  0  0  0  0  0  0  0
    5.5402    2.0970    3.2696 H   0  0  0  0  0  0  0  0  0  0  0  0
    7.2092    1.7703    2.7778 H   0  0  0  0  0  0  0  0  0  0  0  0
    6.8921    4.0034    2.1014 H   0  0  0  0  0  0  0  0  0  0  0  0
    6.6005    3.1008    0.6036 H   0  0  0  0  0  0  0  0  0  0  0  0
    4.6284    4.5143    2.1549 H   0  0  0  0  0  0  0  0  0  0  0  0
    1.5819    4.4685    0.8643 H   0  0  0  0  0  0  0  0  0  0  0  0
   -0.1966    2.7537    1.1766 H   0  0  0  0  0  0  0  0  0  0  0  0
    2.3249   -0.1588   -0.6942 H   0  0  0  0  0  0  0  0  0  0  0  0
    4.0301    1.6134   -1.0847 H   0  0  0  0  0  0  0  0  0  0  0  0
   -0.9171    0.5325    0.8269 H   0  0  0  0  0  0  0  0  0  0  0  0
   -1.5515   -3.5773    1.9236 H   0  0  0  0  0  0  0  0  0  0  0  0
    0.7224   -4.6649    1.9110 H   0  0  0  0  0  0  0  0  0  0  0  0
    3.1229   -5.0236    2.6100 H   0  0  0  0  0  0  0  0  0  0  0  0
    5.0381   -0.6878   -1.7106 H   0  0  0  0  0  0  0  0  0  0  0  0
    7.2370   -1.7786   -1.2351 H   0  0  0  0  0  0  0  0  0  0  0  0
    7.2901   -3.6727    0.4293 H   0  0  0  0  0  0  0  0  0  0  0  0
  1  2  1  0
  2  3  1  0
  2  4  1  0
  4  5  1  0
  5  6  1  0
  6  7  1  0
  8  7  1  1
  8  9  2  0
  8 10  2  0
  8 11  1  0
 11 12  2  0
 12 13  1  0
 13 14  2  0
 14 15  1  0
 15 16  2  0
 14 17  1  0
 17 18  1  0
 18 19  2  0
 19 20  1  0
 20 21  2  0
 21 22  1  0
 22 23  2  0
 22 24  1  0
 24 25  2  0
 25 26  1  0
 26 27  2  0
 27 28  1  0
 28 29  1  0
 29 30  2  0
 30 31  1  0
 31 32  2  0
 16 11  1  0
 23 18  1  0
 28 24  1  0
 32 27  1  0
  1 33  1  1
  1 34  1  0
  1 35  1  0
  3 36  1  1
  3 37  1  0
  3 38  1  0
  4 39  1  6
  4 40  1  0
  5 41  1  1
  5 42  1  0
  6 43  1  1
  6 44  1  0
  7 45  1  0
 12 46  1  0
 13 47  1  0
 15 48  1  0
 16 49  1  0
 17 50  1  0
 20 51  1  0
 21 52  1  0
 25 53  1  0
 30 54  1  0
 31 55  1  0
 32 56  1  0
M  END
$$$$
