 energy: -91.988539313972 gnorm: 0.000012016072 xtb: 6.5.1 (9af7eec)
     RDKit          3D

 56 59  0  0  0  0  0  0  0  0999 V2000
   -7.0029   -0.8048    2.3117 C   0  0  1  0  0  0  0  0  0  0  0  0
   -6.3714   -0.6679    1.0190 N   0  0  0  0  0  0  0  0  0  0  0  0
   -6.5684   -1.8418    0.1937 C   0  0  1  0  0  0  0  0  0  0  0  0
   -6.7444    0.5707    0.3528 C   0  0  1  0  0  0  0  0  0  0  0  0
   -5.7238    1.6656    0.6760 C   0  0  1  0  0  0  0  0  0  0  0  0
   -4.4045    1.3509   -0.0317 C   0  0  1  0  0  0  0  0  0  0  0  0
   -4.5361    1.5272   -1.4591 N   0  0  0  0  0  0  0  0  0  0  0  0
   -3.8622    0.4152   -2.4883 S   0  0  1  0  0  6  0  0  0  0  0  0
   -4.3901   -0.8730   -2.1498 O   0  0  0  0  0  0  0  0  0  0  0  0
   -4.0750    0.9338   -3.8082 O   0  0  0  0  0  0  0  0  0  0  0  0
   -2.1171    0.4465   -2.1101 C   0  0  0  0  0  0  0  0  0  0  0  0
   -1.5816   -0.4627   -1.2184 C   0  0  0  0  0  0  0  0  0  0  0  0
   -0.2402   -0.4033   -0.8912 C   0  0  0  0  0  0  0  0  0  0  0  0
    0.5724    0.5769   -1.4657 C   0  0  0  0  0  0  0  0  0  0  0  0
    0.0144    1.4872   -2.3716 C   0  0  0  0  0  0  0  0  0  0  0  0
   -1.3267    1.4217   -2.6889 C   0  0  0  0  0  0  0  0  0  0  0  0
    1.9202    0.6959   -1.1884 N   0  0  0  0  0  0  0  0  0  0  0  0
    2.7358   -0.0272   -0.3705 C   0  0  0  0  0  0  0  0  0  0  0  0
    2.2581   -1.0363    0.3550 N   0  0  0  0  0  0  0  0  0  0  0  0
    3.1302   -1.6770    1.1172 C   0  0  0  0  0  0  0  0  0  0  0  0
    4.4692   -1.3420    1.1821 C   0  0  0  0  0  0  0  0  0  0  0  0
    4.8741   -0.2630    0.3851 C   0  0  0  0  0  0  0  0  0  0  0  0
    4.0035    0.3867   -0.3856 N   0  0  0  0  0  0  0  0  0  0  0  0
    6.2320    0.2218    0.3341 C   0  0  0  0  0  0  0  0  0  0  0  0
    6.7480    1.2777   -0.4165 C   0  0  0  0  0  0  0  0  0  0  0  0
    8.0551    1.4427   -0.2121 N   0  0  0  0  0  0  0  0  0  0  0  0
    8.4050    0.5102    0.6615 C   0  0  0  0  0  0  0  0  0  0  0  0
    7.3011   -0.2670    1.0243 N   0  0  0  0  0  0  0  0  0  0  0  0
    7.3460   -1.2723    1.8797 N   0  0  0  0  0  0  0  0  0  0  0  0
    8.5035   -1.5438    2.4104 C   0  0  0  0  0  0  0  0  0  0  0  0
    9.6894   -0.8376    2.1283 C   0  0  0  0  0  0  0  0  0  0  0  0
    9.6404    0.2059    1.2402 C   0  0  0  0  0  0  0  0  0  0  0  0
   -6.7949    0.0783    2.9142 H   0  0  0  0  0  0  0  0  0  0  0  0
   -8.0969   -0.9290    2.2427 H   0  0  0  0  0  0  0  0  0  0  0  0
   -6.5900   -1.6744    2.8220 H   0  0  0  0  0  0  0  0  0  0  0  0
   -7.6263   -2.0152   -0.0595 H   0  0  0  0  0  0  0  0  0  0  0  0
   -5.9933   -1.7305   -0.7239 H   0  0  0  0  0  0  0  0  0  0  0  0
   -6.1984   -2.7141    0.7325 H   0  0  0  0  0  0  0  0  0  0  0  0
   -6.7301    0.4150   -0.7272 H   0  0  0  0  0  0  0  0  0  0  0  0
   -7.7559    0.8978    0.6402 H   0  0  0  0  0  0  0  0  0  0  0  0
   -6.0980    2.6353    0.3445 H   0  0  0  0  0  0  0  0  0  0  0  0
   -5.5491    1.7066    1.7512 H   0  0  0  0  0  0  0  0  0  0  0  0
   -3.5854    1.9605    0.3725 H   0  0  0  0  0  0  0  0  0  0  0  0
   -4.1782    0.2963    0.1304 H   0  0  0  0  0  0  0  0  0  0  0  0
   -4.4644    2.4705   -1.8005 H   0  0  0  0  0  0  0  0  0  0  0  0
   -2.2242   -1.2217   -0.8014 H   0  0  0  0  0  0  0  0  0  0  0  0
    0.1973   -1.1041   -0.2008 H   0  0  0  0  0  0  0  0  0  0  0  0
    0.6422    2.2408   -2.8248 H   0  0  0  0  0  0  0  0  0  0  0  0
   -1.7727    2.1030   -3.3962 H   0  0  0  0  0  0  0  0  0  0  0  0
    2.4173    1.4301   -1.6766 H   0  0  0  0  0  0  0  0  0  0  0  0
    2.7217   -2.4944    1.6974 H   0  0  0  0  0  0  0  0  0  0  0  0
    5.1667   -1.8719    1.8053 H   0  0  0  0  0  0  0  0  0  0  0  0
    6.2022    1.9083   -1.0889 H   0  0  0  0  0  0  0  0  0  0  0  0
    8.4975   -2.3716    3.1034 H   0  0  0  0  0  0  0  0  0  0  0  0
   10.6100   -1.1238    2.6092 H   0  0  0  0  0  0  0  0  0  0  0  0
   10.5035    0.7934    0.9732 H   0  0  0  0  0  0  0  0  0  0  0  0
  1  2  1  0
  2  3  1  0
  2  4  1  0
  4  5  1  0
  5  6  1  0
  6  7  1  0
  8  7  1  1
  8  9  2  0
  8 10  2  0
  8 11  1  0
 11 12  2  0
 12 13  1  0
 13 14  2  0
 14 15  1  0
 15 16  2  0
 14 17  1  0
 17 18  1  0
 18 19  2  0
 19 20  1  0
 20 21  2  0
 21 22  1  0
 22 23  2  0
 22 24  1  0
 24 25  2  0
 25 26  1  0
 26 27  2  0
 27 28  1  0
 28 29  1  0
 29 30  2  0
 30 31  1  0
 31 32  2  0
 16 11  1  0
 23 18  1  0
 28 24  1  0
 32 27  1  0
  1 33  1  1
  1 34  1  0
  1 35  1  0
  3 36  1  6
  3 37  1  0
  3 38  1  0
  4 39  1  6
  4 40  1  0
  5 41  1  6
  5 42  1  0
  6 43  1  1
  6 44  1  0
  7 45  1  0
 12 46  1  0
 13 47  1  0
 15 48  1  0
 16 49  1  0
 17 50  1  0
 20 51  1  0
 21 52  1  0
 25 53  1  0
 30 54  1  0
 31 55  1  0
 32 56  1  0
M  END
$$$$
