 energy: -91.994004471204 gnorm: 0.000038718784 xtb: 6.5.1 (9af7eec)
     RDKit          3D

 56 59  0  0  0  0  0  0  0  0999 V2000
    1.8064    3.5981    3.5239 C   0  0  1  0  0  0  0  0  0  0  0  0
    3.0293    2.8488    3.3114 N   0  0  0  0  0  0  0  0  0  0  0  0
    2.8487    1.4567    3.6700 C   0  0  1  0  0  0  0  0  0  0  0  0
    3.5451    2.9969    1.9544 C   0  0  1  0  0  0  0  0  0  0  0  0
    5.0690    2.8556    1.9016 C   0  0  1  0  0  0  0  0  0  0  0  0
    5.7660    4.0261    2.6013 C   0  0  1  0  0  0  0  0  0  0  0  0
    5.4985    4.0993    4.0174 N   0  0  0  0  0  0  0  0  0  0  0  0
    6.6180    3.4610    5.0588 S   0  0  1  0  0  6  0  0  0  0  0  0
    7.9125    3.8700    4.5956 O   0  0  0  0  0  0  0  0  0  0  0  0
    6.1961    3.8244    6.3800 O   0  0  0  0  0  0  0  0  0  0  0  0
    6.4999    1.6785    4.9139 C   0  0  0  0  0  0  0  0  0  0  0  0
    7.2923    0.9983    4.0086 C   0  0  0  0  0  0  0  0  0  0  0  0
    7.1793   -0.3736    3.8833 C   0  0  0  0  0  0  0  0  0  0  0  0
    6.2683   -1.0721    4.6786 C   0  0  0  0  0  0  0  0  0  0  0  0
    5.4833   -0.3700    5.6004 C   0  0  0  0  0  0  0  0  0  0  0  0
    5.6001    1.0006    5.7142 C   0  0  0  0  0  0  0  0  0  0  0  0
    6.1065   -2.4428    4.6083 N   0  0  0  0  0  0  0  0  0  0  0  0
    6.7240   -3.3832    3.8404 C   0  0  0  0  0  0  0  0  0  0  0  0
    6.3370   -4.6353    4.1235 N   0  0  0  0  0  0  0  0  0  0  0  0
    6.9025   -5.6003    3.4237 C   0  0  0  0  0  0  0  0  0  0  0  0
    7.8482   -5.3621    2.4399 C   0  0  0  0  0  0  0  0  0  0  0  0
    8.1731   -4.0224    2.2087 C   0  0  0  0  0  0  0  0  0  0  0  0
    7.6048   -3.0385    2.9120 N   0  0  0  0  0  0  0  0  0  0  0  0
    9.1231   -3.5982    1.2084 C   0  0  0  0  0  0  0  0  0  0  0  0
    9.4726   -2.3030    0.8266 C   0  0  0  0  0  0  0  0  0  0  0  0
   10.3904   -2.2986   -0.1401 N   0  0  0  0  0  0  0  0  0  0  0  0
   10.6522   -3.5712   -0.3973 C   0  0  0  0  0  0  0  0  0  0  0  0
    9.8835   -4.4079    0.4168 N   0  0  0  0  0  0  0  0  0  0  0  0
    9.9317   -5.7274    0.3845 N   0  0  0  0  0  0  0  0  0  0  0  0
   10.7556   -6.2672   -0.4665 C   0  0  0  0  0  0  0  0  0  0  0  0
   11.5839   -5.5357   -1.3406 C   0  0  0  0  0  0  0  0  0  0  0  0
   11.5315   -4.1661   -1.3065 C   0  0  0  0  0  0  0  0  0  0  0  0
    1.5038    3.4908    4.5648 H   0  0  0  0  0  0  0  0  0  0  0  0
    1.9894    4.6529    3.3258 H   0  0  0  0  0  0  0  0  0  0  0  0
    0.9796    3.2546    2.8840 H   0  0  0  0  0  0  0  0  0  0  0  0
    2.5817    1.3908    4.7236 H   0  0  0  0  0  0  0  0  0  0  0  0
    2.0566    0.9736    3.0761 H   0  0  0  0  0  0  0  0  0  0  0  0
    3.7774    0.9113    3.5170 H   0  0  0  0  0  0  0  0  0  0  0  0
    3.0809    2.2643    1.2730 H   0  0  0  0  0  0  0  0  0  0  0  0
    3.2825    3.9951    1.5959 H   0  0  0  0  0  0  0  0  0  0  0  0
    5.3764    1.9158    2.3619 H   0  0  0  0  0  0  0  0  0  0  0  0
    5.3805    2.8373    0.8557 H   0  0  0  0  0  0  0  0  0  0  0  0
    6.8507    3.9572    2.4970 H   0  0  0  0  0  0  0  0  0  0  0  0
    5.4385    4.9669    2.1431 H   0  0  0  0  0  0  0  0  0  0  0  0
    4.5440    3.8345    4.2405 H   0  0  0  0  0  0  0  0  0  0  0  0
    8.0046    1.5548    3.4200 H   0  0  0  0  0  0  0  0  0  0  0  0
    7.7885   -0.9261    3.1891 H   0  0  0  0  0  0  0  0  0  0  0  0
    4.7872   -0.9096    6.2264 H   0  0  0  0  0  0  0  0  0  0  0  0
    5.0175    1.5618    6.4268 H   0  0  0  0  0  0  0  0  0  0  0  0
    5.4532   -2.8523    5.2642 H   0  0  0  0  0  0  0  0  0  0  0  0
    6.5798   -6.6046    3.6669 H   0  0  0  0  0  0  0  0  0  0  0  0
    8.3075   -6.1565    1.8800 H   0  0  0  0  0  0  0  0  0  0  0  0
    9.0817   -1.3872    1.2220 H   0  0  0  0  0  0  0  0  0  0  0  0
   10.7649   -7.3468   -0.4608 H   0  0  0  0  0  0  0  0  0  0  0  0
   12.2409   -6.0569   -2.0170 H   0  0  0  0  0  0  0  0  0  0  0  0
   12.1331   -3.5373   -1.9419 H   0  0  0  0  0  0  0  0  0  0  0  0
  1  2  1  0
  2  3  1  0
  2  4  1  0
  4  5  1  0
  5  6  1  0
  6  7  1  0
  8  7  1  6
  8  9  2  0
  8 10  2  0
  8 11  1  0
 11 12  2  0
 12 13  1  0
 13 14  2  0
 14 15  1  0
 15 16  2  0
 14 17  1  0
 17 18  1  0
 18 19  2  0
 19 20  1  0
 20 21  2  0
 21 22  1  0
 22 23  2  0
 22 24  1  0
 24 25  2  0
 25 26  1  0
 26 27  2  0
 27 28  1  0
 28 29  1  0
 29 30  2  0
 30 31  1  0
 31 32  2  0
 16 11  1  0
 23 18  1  0
 28 24  1  0
 32 27  1  0
  1 33  1  1
  1 34  1  0
  1 35  1  0
  3 36  1  1
  3 37  1  0
  3 38  1  0
  4 39  1  6
  4 40  1  0
  5 41  1  1
  5 42  1  0
  6 43  1  1
  6 44  1  0
  7 45  1  0
 12 46  1  0
 13 47  1  0
 15 48  1  0
 16 49  1  0
 17 50  1  0
 20 51  1  0
 21 52  1  0
 25 53  1  0
 30 54  1  0
 31 55  1  0
 32 56  1  0
M  END
$$$$
