 energy: -91.990609855987 gnorm: 0.000018277037 xtb: 6.5.1 (9af7eec)
     RDKit          3D

 56 59  0  0  0  0  0  0  0  0999 V2000
    3.3670    1.8013   -2.2038 C   0  0  1  0  0  0  0  0  0  0  0  0
    3.4929    2.0415   -0.7825 N   0  0  0  0  0  0  0  0  0  0  0  0
    4.8836    2.2073   -0.4144 C   0  0  1  0  0  0  0  0  0  0  0  0
    2.7090    3.1774   -0.3267 C   0  0  1  0  0  0  0  0  0  0  0  0
    1.1979    2.9704   -0.4409 C   0  0  1  0  0  0  0  0  0  0  0  0
    0.7455    1.6793    0.2364 C   0  0  1  0  0  0  0  0  0  0  0  0
    1.1154    1.6557    1.6344 N   0  0  0  0  0  0  0  0  0  0  0  0
    1.0531    0.1307    2.3276 S   0  0  1  0  0  6  0  0  0  0  0  0
    1.2794    0.3176    3.7311 O   0  0  0  0  0  0  0  0  0  0  0  0
   -0.1383   -0.5664    1.9197 O   0  0  0  0  0  0  0  0  0  0  0  0
    2.4664   -0.6155    1.5470 C   0  0  0  0  0  0  0  0  0  0  0  0
    2.2821   -1.5475    0.5439 C   0  0  0  0  0  0  0  0  0  0  0  0
    3.3789   -2.0494   -0.1263 C   0  0  0  0  0  0  0  0  0  0  0  0
    4.6653   -1.6102    0.2017 C   0  0  0  0  0  0  0  0  0  0  0  0
    4.8349   -0.6955    1.2430 C   0  0  0  0  0  0  0  0  0  0  0  0
    3.7316   -0.1963    1.9063 C   0  0  0  0  0  0  0  0  0  0  0  0
    5.7264   -2.1256   -0.5209 N   0  0  0  0  0  0  0  0  0  0  0  0
    7.0242   -1.7214   -0.6002 C   0  0  0  0  0  0  0  0  0  0  0  0
    7.7807   -2.4932   -1.3930 N   0  0  0  0  0  0  0  0  0  0  0  0
    9.0500   -2.1520   -1.5104 C   0  0  0  0  0  0  0  0  0  0  0  0
    9.5971   -1.0518   -0.8702 C   0  0  0  0  0  0  0  0  0  0  0  0
    8.7205   -0.2975   -0.0851 C   0  0  0  0  0  0  0  0  0  0  0  0
    7.4366   -0.6413    0.0482 N   0  0  0  0  0  0  0  0  0  0  0  0
    9.1130    0.8961    0.6240 C   0  0  0  0  0  0  0  0  0  0  0  0
    8.3170    1.7702    1.3638 C   0  0  0  0  0  0  0  0  0  0  0  0
    9.0255    2.7776    1.8746 N   0  0  0  0  0  0  0  0  0  0  0  0
   10.2753    2.5766    1.4840 C   0  0  0  0  0  0  0  0  0  0  0  0
   10.3691    1.4205    0.7035 N   0  0  0  0  0  0  0  0  0  0  0  0
   11.4912    0.9678    0.1740 N   0  0  0  0  0  0  0  0  0  0  0  0
   12.5720    1.6559    0.4050 C   0  0  0  0  0  0  0  0  0  0  0  0
   12.6108    2.8357    1.1741 C   0  0  0  0  0  0  0  0  0  0  0  0
   11.4445    3.3043    1.7222 C   0  0  0  0  0  0  0  0  0  0  0  0
    3.9878    0.9468   -2.4700 H   0  0  0  0  0  0  0  0  0  0  0  0
    2.3352    1.5620   -2.4505 H   0  0  0  0  0  0  0  0  0  0  0  0
    3.6839    2.6659   -2.8108 H   0  0  0  0  0  0  0  0  0  0  0  0
    5.4391    1.3111   -0.6862 H   0  0  0  0  0  0  0  0  0  0  0  0
    5.3521    3.0755   -0.9068 H   0  0  0  0  0  0  0  0  0  0  0  0
    4.9517    2.3425    0.6627 H   0  0  0  0  0  0  0  0  0  0  0  0
    2.9462    3.3209    0.7293 H   0  0  0  0  0  0  0  0  0  0  0  0
    2.9825    4.1011   -0.8719 H   0  0  0  0  0  0  0  0  0  0  0  0
    0.7045    3.8239    0.0289 H   0  0  0  0  0  0  0  0  0  0  0  0
    0.8880    2.9423   -1.4862 H   0  0  0  0  0  0  0  0  0  0  0  0
   -0.3356    1.5374    0.1024 H   0  0  0  0  0  0  0  0  0  0  0  0
    1.2645    0.8357   -0.2213 H   0  0  0  0  0  0  0  0  0  0  0  0
    0.6261    2.3330    2.2011 H   0  0  0  0  0  0  0  0  0  0  0  0
    1.2786   -1.8645    0.3067 H   0  0  0  0  0  0  0  0  0  0  0  0
    3.2475   -2.7758   -0.9153 H   0  0  0  0  0  0  0  0  0  0  0  0
    5.8317   -0.3842    1.5041 H   0  0  0  0  0  0  0  0  0  0  0  0
    3.8315    0.5135    2.7111 H   0  0  0  0  0  0  0  0  0  0  0  0
    5.5228   -2.9035   -1.1351 H   0  0  0  0  0  0  0  0  0  0  0  0
    9.6478   -2.7895   -2.1492 H   0  0  0  0  0  0  0  0  0  0  0  0
   10.6332   -0.7838   -0.9715 H   0  0  0  0  0  0  0  0  0  0  0  0
    7.2609    1.6928    1.5247 H   0  0  0  0  0  0  0  0  0  0  0  0
   13.4668    1.2527   -0.0448 H   0  0  0  0  0  0  0  0  0  0  0  0
   13.5467    3.3488    1.3201 H   0  0  0  0  0  0  0  0  0  0  0  0
   11.3930    4.1979    2.3221 H   0  0  0  0  0  0  0  0  0  0  0  0
  1  2  1  0
  2  3  1  0
  2  4  1  0
  4  5  1  0
  5  6  1  0
  6  7  1  0
  8  7  1  6
  8  9  2  0
  8 10  2  0
  8 11  1  0
 11 12  2  0
 12 13  1  0
 13 14  2  0
 14 15  1  0
 15 16  2  0
 14 17  1  0
 17 18  1  0
 18 19  2  0
 19 20  1  0
 20 21  2  0
 21 22  1  0
 22 23  2  0
 22 24  1  0
 24 25  2  0
 25 26  1  0
 26 27  2  0
 27 28  1  0
 28 29  1  0
 29 30  2  0
 30 31  1  0
 31 32  2  0
 16 11  1  0
 23 18  1  0
 28 24  1  0
 32 27  1  0
  1 33  1  6
  1 34  1  0
  1 35  1  0
  3 36  1  1
  3 37  1  0
  3 38  1  0
  4 39  1  1
  4 40  1  0
  5 41  1  1
  5 42  1  0
  6 43  1  1
  6 44  1  0
  7 45  1  0
 12 46  1  0
 13 47  1  0
 15 48  1  0
 16 49  1  0
 17 50  1  0
 20 51  1  0
 21 52  1  0
 25 53  1  0
 30 54  1  0
 31 55  1  0
 32 56  1  0
M  END
$$$$
