 energy: -91.988814375081 gnorm: 0.000041484879 xtb: 6.5.1 (9af7eec)
     RDKit          3D

 56 59  0  0  0  0  0  0  0  0999 V2000
    2.7742    0.3392   -4.6812 C   0  0  1  0  0  0  0  0  0  0  0  0
    2.5853    1.4089   -3.7258 N   0  0  0  0  0  0  0  0  0  0  0  0
    1.1997    1.8361   -3.6957 C   0  0  1  0  0  0  0  0  0  0  0  0
    3.0883    1.0596   -2.4064 C   0  0  1  0  0  0  0  0  0  0  0  0
    4.5948    1.3063   -2.2948 C   0  0  1  0  0  0  0  0  0  0  0  0
    4.9243    2.7886   -2.4665 C   0  0  1  0  0  0  0  0  0  0  0  0
    4.3257    3.5731   -1.4006 N   0  0  0  0  0  0  0  0  0  0  0  0
    5.1718    3.6463    0.0442 S   0  0  1  0  0  6  0  0  0  0  0  0
    6.5817    3.4625   -0.1701 O   0  0  0  0  0  0  0  0  0  0  0  0
    4.7296    4.8448    0.6988 O   0  0  0  0  0  0  0  0  0  0  0  0
    4.5287    2.2267    0.9104 C   0  0  0  0  0  0  0  0  0  0  0  0
    5.3853    1.3060    1.4819 C   0  0  0  0  0  0  0  0  0  0  0  0
    4.8665    0.1771    2.0870 C   0  0  0  0  0  0  0  0  0  0  0  0
    3.4871   -0.0451    2.0931 C   0  0  0  0  0  0  0  0  0  0  0  0
    2.6337    0.9171    1.5481 C   0  0  0  0  0  0  0  0  0  0  0  0
    3.1589    2.0537    0.9669 C   0  0  0  0  0  0  0  0  0  0  0  0
    2.9975   -1.2090    2.6661 N   0  0  0  0  0  0  0  0  0  0  0  0
    1.8636   -1.8847    2.3285 C   0  0  0  0  0  0  0  0  0  0  0  0
    1.6239   -2.9872    3.0481 N   0  0  0  0  0  0  0  0  0  0  0  0
    0.5355   -3.6666    2.7329 C   0  0  0  0  0  0  0  0  0  0  0  0
   -0.3149   -3.3003    1.7017 C   0  0  0  0  0  0  0  0  0  0  0  0
    0.0439   -2.1512    0.9912 C   0  0  0  0  0  0  0  0  0  0  0  0
    1.1236   -1.4423    1.3225 N   0  0  0  0  0  0  0  0  0  0  0  0
   -0.6713   -1.6468   -0.1554 C   0  0  0  0  0  0  0  0  0  0  0  0
   -0.3173   -0.5817   -0.9823 C   0  0  0  0  0  0  0  0  0  0  0  0
   -1.1899   -0.4143   -1.9776 N   0  0  0  0  0  0  0  0  0  0  0  0
   -2.1131   -1.3509   -1.8113 C   0  0  0  0  0  0  0  0  0  0  0  0
   -1.8231   -2.1371   -0.6923 N   0  0  0  0  0  0  0  0  0  0  0  0
   -2.5636   -3.1484   -0.2763 N   0  0  0  0  0  0  0  0  0  0  0  0
   -3.6337   -3.4167   -0.9678 C   0  0  0  0  0  0  0  0  0  0  0  0
   -4.0362   -2.7017   -2.1133 C   0  0  0  0  0  0  0  0  0  0  0  0
   -3.2645   -1.6529   -2.5431 C   0  0  0  0  0  0  0  0  0  0  0  0
    2.4774    0.6872   -5.6697 H   0  0  0  0  0  0  0  0  0  0  0  0
    3.8251    0.0599   -4.7176 H   0  0  0  0  0  0  0  0  0  0  0  0
    2.1817   -0.5570   -4.4335 H   0  0  0  0  0  0  0  0  0  0  0  0
    0.9115    2.1532   -4.6976 H   0  0  0  0  0  0  0  0  0  0  0  0
    0.5075    1.0470   -3.3678 H   0  0  0  0  0  0  0  0  0  0  0  0
    1.1043    2.6886   -3.0253 H   0  0  0  0  0  0  0  0  0  0  0  0
    2.5974    1.6986   -1.6715 H   0  0  0  0  0  0  0  0  0  0  0  0
    2.8663    0.0093   -2.1485 H   0  0  0  0  0  0  0  0  0  0  0  0
    4.9414    0.9643   -1.3192 H   0  0  0  0  0  0  0  0  0  0  0  0
    5.1297    0.7455   -3.0618 H   0  0  0  0  0  0  0  0  0  0  0  0
    6.0123    2.9270   -2.4616 H   0  0  0  0  0  0  0  0  0  0  0  0
    4.5141    3.1258   -3.4192 H   0  0  0  0  0  0  0  0  0  0  0  0
    4.0653    4.5074   -1.6736 H   0  0  0  0  0  0  0  0  0  0  0  0
    6.4479    1.4825    1.4286 H   0  0  0  0  0  0  0  0  0  0  0  0
    5.5265   -0.5488    2.5390 H   0  0  0  0  0  0  0  0  0  0  0  0
    1.5702    0.7559    1.5807 H   0  0  0  0  0  0  0  0  0  0  0  0
    2.5210    2.8175    0.5526 H   0  0  0  0  0  0  0  0  0  0  0  0
    3.6016   -1.7112    3.3022 H   0  0  0  0  0  0  0  0  0  0  0  0
    0.3485   -4.5488    3.3317 H   0  0  0  0  0  0  0  0  0  0  0  0
   -1.1931   -3.8672    1.4493 H   0  0  0  0  0  0  0  0  0  0  0  0
    0.5436    0.0480   -0.8760 H   0  0  0  0  0  0  0  0  0  0  0  0
   -4.2126   -4.2489   -0.5969 H   0  0  0  0  0  0  0  0  0  0  0  0
   -4.9371   -2.9856   -2.6317 H   0  0  0  0  0  0  0  0  0  0  0  0
   -3.5071   -1.0595   -3.4093 H   0  0  0  0  0  0  0  0  0  0  0  0
  1  2  1  0
  2  3  1  0
  2  4  1  0
  4  5  1  0
  5  6  1  0
  6  7  1  0
  8  7  1  6
  8  9  2  0
  8 10  2  0
  8 11  1  0
 11 12  2  0
 12 13  1  0
 13 14  2  0
 14 15  1  0
 15 16  2  0
 14 17  1  0
 17 18  1  0
 18 19  2  0
 19 20  1  0
 20 21  2  0
 21 22  1  0
 22 23  2  0
 22 24  1  0
 24 25  2  0
 25 26  1  0
 26 27  2  0
 27 28  1  0
 28 29  1  0
 29 30  2  0
 30 31  1  0
 31 32  2  0
 16 11  1  0
 23 18  1  0
 28 24  1  0
 32 27  1  0
  1 33  1  6
  1 34  1  0
  1 35  1  0
  3 36  1  6
  3 37  1  0
  3 38  1  0
  4 39  1  1
  4 40  1  0
  5 41  1  1
  5 42  1  0
  6 43  1  6
  6 44  1  0
  7 45  1  0
 12 46  1  0
 13 47  1  0
 15 48  1  0
 16 49  1  0
 17 50  1  0
 20 51  1  0
 21 52  1  0
 25 53  1  0
 30 54  1  0
 31 55  1  0
 32 56  1  0
M  END
$$$$
