 energy: -91.992564517740 gnorm: 0.000027997003 xtb: 6.5.1 (9af7eec)
     RDKit          3D

 56 59  0  0  0  0  0  0  0  0999 V2000
    6.8255    1.7217   -1.5837 C   0  0  1  0  0  0  0  0  0  0  0  0
    5.8762    0.9262   -0.8272 N   0  0  0  0  0  0  0  0  0  0  0  0
    5.9157   -0.4623   -1.2371 C   0  0  1  0  0  0  0  0  0  0  0  0
    6.0444    1.0799    0.6149 C   0  0  1  0  0  0  0  0  0  0  0  0
    4.7060    0.9150    1.3421 C   0  0  1  0  0  0  0  0  0  0  0  0
    3.8411    2.1683    1.1987 C   0  0  1  0  0  0  0  0  0  0  0  0
    3.7132    2.6031   -0.1812 N   0  0  0  0  0  0  0  0  0  0  0  0
    4.3276    4.1246   -0.4929 S   0  0  1  0  0  6  0  0  0  0  0  0
    5.5048    4.3966    0.2965 O   0  0  0  0  0  0  0  0  0  0  0  0
    4.4347    4.2452   -1.9181 O   0  0  0  0  0  0  0  0  0  0  0  0
    2.9921    5.1449    0.1002 C   0  0  0  0  0  0  0  0  0  0  0  0
    3.1481    5.9358    1.2214 C   0  0  0  0  0  0  0  0  0  0  0  0
    2.0930    6.7003    1.6834 C   0  0  0  0  0  0  0  0  0  0  0  0
    0.8696    6.6703    1.0117 C   0  0  0  0  0  0  0  0  0  0  0  0
    0.7287    5.8637   -0.1244 C   0  0  0  0  0  0  0  0  0  0  0  0
    1.7870    5.1038   -0.5764 C   0  0  0  0  0  0  0  0  0  0  0  0
   -0.2287    7.4078    1.4123 N   0  0  0  0  0  0  0  0  0  0  0  0
   -0.3988    8.2738    2.4495 C   0  0  0  0  0  0  0  0  0  0  0  0
    0.5909    8.5207    3.3059 N   0  0  0  0  0  0  0  0  0  0  0  0
    0.3273    9.3788    4.2782 C   0  0  0  0  0  0  0  0  0  0  0  0
   -0.8972   10.0016    4.4281 C   0  0  0  0  0  0  0  0  0  0  0  0
   -1.8751    9.6734    3.4801 C   0  0  0  0  0  0  0  0  0  0  0  0
   -1.6188    8.8117    2.4977 N   0  0  0  0  0  0  0  0  0  0  0  0
   -3.2079   10.2268    3.4893 C   0  0  0  0  0  0  0  0  0  0  0  0
   -4.2578    9.9730    2.6075 C   0  0  0  0  0  0  0  0  0  0  0  0
   -5.3526   10.6656    2.9231 N   0  0  0  0  0  0  0  0  0  0  0  0
   -5.0365   11.3709    3.9991 C   0  0  0  0  0  0  0  0  0  0  0  0
   -3.7141   11.1253    4.3807 N   0  0  0  0  0  0  0  0  0  0  0  0
   -3.1211   11.6874    5.4184 N   0  0  0  0  0  0  0  0  0  0  0  0
   -3.8298   12.5234    6.1211 C   0  0  0  0  0  0  0  0  0  0  0  0
   -5.1700   12.8557    5.8417 C   0  0  0  0  0  0  0  0  0  0  0  0
   -5.7838   12.2706    4.7641 C   0  0  0  0  0  0  0  0  0  0  0  0
    6.5977    1.6268   -2.6445 H   0  0  0  0  0  0  0  0  0  0  0  0
    6.7190    2.7683   -1.3052 H   0  0  0  0  0  0  0  0  0  0  0  0
    7.8663    1.4063   -1.4168 H   0  0  0  0  0  0  0  0  0  0  0  0
    5.6743   -0.5273   -2.2973 H   0  0  0  0  0  0  0  0  0  0  0  0
    6.9040   -0.9209   -1.0744 H   0  0  0  0  0  0  0  0  0  0  0  0
    5.1760   -1.0345   -0.6796 H   0  0  0  0  0  0  0  0  0  0  0  0
    6.7785    0.3578    1.0083 H   0  0  0  0  0  0  0  0  0  0  0  0
    6.4192    2.0864    0.8119 H   0  0  0  0  0  0  0  0  0  0  0  0
    4.1673    0.0590    0.9330 H   0  0  0  0  0  0  0  0  0  0  0  0
    4.8839    0.7298    2.4025 H   0  0  0  0  0  0  0  0  0  0  0  0
    2.8373    1.9820    1.5999 H   0  0  0  0  0  0  0  0  0  0  0  0
    4.2902    2.9890    1.7661 H   0  0  0  0  0  0  0  0  0  0  0  0
    4.1530    1.9362   -0.8157 H   0  0  0  0  0  0  0  0  0  0  0  0
    4.1060    5.9494    1.7170 H   0  0  0  0  0  0  0  0  0  0  0  0
    2.1955    7.3252    2.5542 H   0  0  0  0  0  0  0  0  0  0  0  0
   -0.2167    5.8423   -0.6473 H   0  0  0  0  0  0  0  0  0  0  0  0
    1.7047    4.4807   -1.4518 H   0  0  0  0  0  0  0  0  0  0  0  0
   -1.0616    7.3179    0.8443 H   0  0  0  0  0  0  0  0  0  0  0  0
    1.1456    9.5660    4.9618 H   0  0  0  0  0  0  0  0  0  0  0  0
   -1.0967   10.6975    5.2227 H   0  0  0  0  0  0  0  0  0  0  0  0
   -4.2367    9.3113    1.7651 H   0  0  0  0  0  0  0  0  0  0  0  0
   -3.3089   12.9608    6.9594 H   0  0  0  0  0  0  0  0  0  0  0  0
   -5.6900   13.5580    6.4721 H   0  0  0  0  0  0  0  0  0  0  0  0
   -6.8050   12.4733    4.4863 H   0  0  0  0  0  0  0  0  0  0  0  0
  1  2  1  0
  2  3  1  0
  2  4  1  0
  4  5  1  0
  5  6  1  0
  6  7  1  0
  8  7  1  6
  8  9  2  0
  8 10  2  0
  8 11  1  0
 11 12  2  0
 12 13  1  0
 13 14  2  0
 14 15  1  0
 15 16  2  0
 14 17  1  0
 17 18  1  0
 18 19  2  0
 19 20  1  0
 20 21  2  0
 21 22  1  0
 22 23  2  0
 22 24  1  0
 24 25  2  0
 25 26  1  0
 26 27  2  0
 27 28  1  0
 28 29  1  0
 29 30  2  0
 30 31  1  0
 31 32  2  0
 16 11  1  0
 23 18  1  0
 28 24  1  0
 32 27  1  0
  1 33  1  6
  1 34  1  0
  1 35  1  0
  3 36  1  6
  3 37  1  0
  3 38  1  0
  4 39  1  1
  4 40  1  0
  5 41  1  6
  5 42  1  0
  6 43  1  1
  6 44  1  0
  7 45  1  0
 12 46  1  0
 13 47  1  0
 15 48  1  0
 16 49  1  0
 17 50  1  0
 20 51  1  0
 21 52  1  0
 25 53  1  0
 30 54  1  0
 31 55  1  0
 32 56  1  0
M  END
$$$$
