 energy: -91.992540494014 gnorm: 0.000018539042 xtb: 6.5.1 (9af7eec)
     RDKit          3D

 56 59  0  0  0  0  0  0  0  0999 V2000
    1.4674   -0.9575    1.8603 C   0  0  1  0  0  0  0  0  0  0  0  0
    2.2076    0.2039    1.4094 N   0  0  0  0  0  0  0  0  0  0  0  0
    1.5295    0.8422    0.2986 C   0  0  1  0  0  0  0  0  0  0  0  0
    2.4583    1.1426    2.4929 C   0  0  1  0  0  0  0  0  0  0  0  0
    3.5630    0.6526    3.4286 C   0  0  1  0  0  0  0  0  0  0  0  0
    4.0000    1.7334    4.4138 C   0  0  1  0  0  0  0  0  0  0  0  0
    4.4785    2.9145    3.7176 N   0  0  0  0  0  0  0  0  0  0  0  0
    5.9263    2.7959    2.8557 S   0  0  1  0  0  6  0  0  0  0  0  0
    6.6676    3.9889    3.1576 O   0  0  0  0  0  0  0  0  0  0  0  0
    6.5415    1.5205    3.0942 O   0  0  0  0  0  0  0  0  0  0  0  0
    5.3501    2.8930    1.1736 C   0  0  0  0  0  0  0  0  0  0  0  0
    4.9902    4.1310    0.6733 C   0  0  0  0  0  0  0  0  0  0  0  0
    4.5153    4.2315   -0.6183 C   0  0  0  0  0  0  0  0  0  0  0  0
    4.3843    3.0871   -1.4149 C   0  0  0  0  0  0  0  0  0  0  0  0
    4.7501    1.8438   -0.8937 C   0  0  0  0  0  0  0  0  0  0  0  0
    5.2388    1.7576    0.3955 C   0  0  0  0  0  0  0  0  0  0  0  0
    3.9043    3.2498   -2.7008 N   0  0  0  0  0  0  0  0  0  0  0  0
    3.6463    2.3375   -3.6795 C   0  0  0  0  0  0  0  0  0  0  0  0
    3.2726    2.8862   -4.8434 N   0  0  0  0  0  0  0  0  0  0  0  0
    3.0171    2.0505   -5.8339 C   0  0  0  0  0  0  0  0  0  0  0  0
    3.1098    0.6762   -5.7010 C   0  0  0  0  0  0  0  0  0  0  0  0
    3.4861    0.2005   -4.4385 C   0  0  0  0  0  0  0  0  0  0  0  0
    3.7578    1.0393   -3.4409 N   0  0  0  0  0  0  0  0  0  0  0  0
    3.5901   -1.2113   -4.1597 C   0  0  0  0  0  0  0  0  0  0  0  0
    3.5762   -2.3142   -5.0111 C   0  0  0  0  0  0  0  0  0  0  0  0
    3.7009   -3.4624   -4.3426 N   0  0  0  0  0  0  0  0  0  0  0  0
    3.7917   -3.1278   -3.0622 C   0  0  0  0  0  0  0  0  0  0  0  0
    3.7321   -1.7447   -2.9102 N   0  0  0  0  0  0  0  0  0  0  0  0
    3.7745   -1.1161   -1.7550 N   0  0  0  0  0  0  0  0  0  0  0  0
    3.8892   -1.8443   -0.6840 C   0  0  0  0  0  0  0  0  0  0  0  0
    3.9702   -3.2537   -0.7021 C   0  0  0  0  0  0  0  0  0  0  0  0
    3.9220   -3.9064   -1.9064 C   0  0  0  0  0  0  0  0  0  0  0  0
    1.3086   -1.6292    1.0175 H   0  0  0  0  0  0  0  0  0  0  0  0
    2.0405   -1.4869    2.6186 H   0  0  0  0  0  0  0  0  0  0  0  0
    0.4848   -0.6943    2.2840 H   0  0  0  0  0  0  0  0  0  0  0  0
    1.4387    0.1284   -0.5184 H   0  0  0  0  0  0  0  0  0  0  0  0
    0.5242    1.2039    0.5656 H   0  0  0  0  0  0  0  0  0  0  0  0
    2.1268    1.6815   -0.0506 H   0  0  0  0  0  0  0  0  0  0  0  0
    2.7874    2.0857    2.0520 H   0  0  0  0  0  0  0  0  0  0  0  0
    1.5407    1.3424    3.0757 H   0  0  0  0  0  0  0  0  0  0  0  0
    3.2249   -0.2084    4.0071 H   0  0  0  0  0  0  0  0  0  0  0  0
    4.4262    0.3518    2.8378 H   0  0  0  0  0  0  0  0  0  0  0  0
    3.1514    2.0381    5.0329 H   0  0  0  0  0  0  0  0  0  0  0  0
    4.7824    1.3197    5.0633 H   0  0  0  0  0  0  0  0  0  0  0  0
    4.5369    3.7253    4.3144 H   0  0  0  0  0  0  0  0  0  0  0  0
    5.1041    4.9998    1.3011 H   0  0  0  0  0  0  0  0  0  0  0  0
    4.2413    5.1964   -1.0205 H   0  0  0  0  0  0  0  0  0  0  0  0
    4.6249    0.9611   -1.4970 H   0  0  0  0  0  0  0  0  0  0  0  0
    5.5470    0.8103    0.8060 H   0  0  0  0  0  0  0  0  0  0  0  0
    3.7436    4.2011   -3.0067 H   0  0  0  0  0  0  0  0  0  0  0  0
    2.7224    2.5107   -6.7685 H   0  0  0  0  0  0  0  0  0  0  0  0
    2.8907    0.0105   -6.5169 H   0  0  0  0  0  0  0  0  0  0  0  0
    3.4911   -2.3186   -6.0802 H   0  0  0  0  0  0  0  0  0  0  0  0
    3.8963   -1.2820    0.2379 H   0  0  0  0  0  0  0  0  0  0  0  0
    4.0670   -3.7955    0.2243 H   0  0  0  0  0  0  0  0  0  0  0  0
    3.9744   -4.9789   -1.9995 H   0  0  0  0  0  0  0  0  0  0  0  0
  1  2  1  0
  2  3  1  0
  2  4  1  0
  4  5  1  0
  5  6  1  0
  6  7  1  0
  8  7  1  1
  8  9  2  0
  8 10  2  0
  8 11  1  0
 11 12  2  0
 12 13  1  0
 13 14  2  0
 14 15  1  0
 15 16  2  0
 14 17  1  0
 17 18  1  0
 18 19  2  0
 19 20  1  0
 20 21  2  0
 21 22  1  0
 22 23  2  0
 22 24  1  0
 24 25  2  0
 25 26  1  0
 26 27  2  0
 27 28  1  0
 28 29  1  0
 29 30  2  0
 30 31  1  0
 31 32  2  0
 16 11  1  0
 23 18  1  0
 28 24  1  0
 32 27  1  0
  1 33  1  6
  1 34  1  0
  1 35  1  0
  3 36  1  6
  3 37  1  0
  3 38  1  0
  4 39  1  6
  4 40  1  0
  5 41  1  1
  5 42  1  0
  6 43  1  1
  6 44  1  0
  7 45  1  0
 12 46  1  0
 13 47  1  0
 15 48  1  0
 16 49  1  0
 17 50  1  0
 20 51  1  0
 21 52  1  0
 25 53  1  0
 30 54  1  0
 31 55  1  0
 32 56  1  0
M  END
$$$$
