cys-relax
     RDKit          3D

 14 13  0  0  1  0  0  0  0  0999 V2000
    0.0068   -0.0245   -0.0458 N   0  0  0  0  0  0  0  0  0  0  0  0
    1.4525    0.0177   -0.0052 C   0  0  2  0  0  0  0  0  0  0  0  0
    1.9391   -0.0005    1.4308 C   0  0  0  0  0  0  0  0  0  0  0  0
    1.2879   -0.9209    2.1586 O   0  0  0  0  0  0  0  0  0  0  0  0
    2.8223    0.6748    1.8776 O   0  0  0  0  0  0  0  0  0  0  0  0
    1.9714    1.2575   -0.7123 C   0  0  1  0  0  0  0  0  0  0  0  0
    1.5518    1.3009   -2.4716 S   0  0  0  0  0  0  0  0  0  0  0  0
   -0.3478   -0.8581    0.3996 H   0  0  0  0  0  0  0  0  0  0  0  0
   -0.2974   -0.0191   -1.0109 H   0  0  0  0  0  0  0  0  0  0  0  0
    1.9315   -0.8632   -0.4701 H   0  0  0  0  0  0  0  0  0  0  0  0
    1.6579   -0.8897    3.0488 H   0  0  0  0  0  0  0  0  0  0  0  0
    1.4990    2.1413   -0.2828 H   0  0  0  0  0  0  0  0  0  0  0  0
    3.0457    1.3555   -0.5806 H   0  0  0  0  0  0  0  0  0  0  0  0
    2.3757    0.3141   -2.8573 H   0  0  0  0  0  0  0  0  0  0  0  0
  1  2  1  0
  1  8  1  0
  2 10  1  6
  2  3  1  0
  3  5  2  0
  3  4  1  0
  4 11  1  0
  6 13  1  6
  6 12  1  0
  6  2  1  0
  7  6  1  0
  9  1  1  0
 14  7  1  0
M  END
$$$$
