cys-relax
     RDKit          3D

 14 13  0  0  1  0  0  0  0  0999 V2000
   -0.0050    0.0342    0.0431 N   0  0  0  0  0  0  0  0  0  0  0  0
    1.4487   -0.0029   -0.0327 C   0  0  2  0  0  0  0  0  0  0  0  0
    1.9946   -0.0302    1.3810 C   0  0  0  0  0  0  0  0  0  0  0  0
    1.4902   -1.0649    2.0724 O   0  0  0  0  0  0  0  0  0  0  0  0
    2.7782    0.7425    1.8544 O   0  0  0  0  0  0  0  0  0  0  0  0
    1.9522    1.2118   -0.7938 C   0  0  1  0  0  0  0  0  0  0  0  0
    3.6884    1.1301   -1.2835 S   0  0  0  0  0  0  0  0  0  0  0  0
   -0.3532   -0.7244    0.6124 H   0  0  0  0  0  0  0  0  0  0  0  0
   -0.4032   -0.0668   -0.8802 H   0  0  0  0  0  0  0  0  0  0  0  0
    1.8432   -0.9069   -0.5217 H   0  0  0  0  0  0  0  0  0  0  0  0
    1.8656   -1.0228    2.9599 H   0  0  0  0  0  0  0  0  0  0  0  0
    1.3987    1.2876   -1.7311 H   0  0  0  0  0  0  0  0  0  0  0  0
    1.7617    2.1191   -0.2237 H   0  0  0  0  0  0  0  0  0  0  0  0
    4.1918    1.2702   -0.0490 H   0  0  0  0  0  0  0  0  0  0  0  0
  1  8  1  0
  2 10  1  6
  2  1  1  0
  2  3  1  0
  3  5  2  0
  3  4  1  0
  4 11  1  0
  6 13  1  1
  6  2  1  0
  7  6  1  0
  7 14  1  0
  9  1  1  0
 12  6  1  0
M  END
$$$$
