cys-relax
     RDKit          3D

 14 13  0  0  1  0  0  0  0  0999 V2000
   -0.0101    0.0311    0.0158 N   0  0  0  0  0  0  0  0  0  0  0  0
    1.4457   -0.0073   -0.0010 C   0  0  2  0  0  0  0  0  0  0  0  0
    1.9859   -0.0246    1.4183 C   0  0  0  0  0  0  0  0  0  0  0  0
    2.0182   -1.2666    1.9237 O   0  0  0  0  0  0  0  0  0  0  0  0
    2.2808    0.9468    2.0611 O   0  0  0  0  0  0  0  0  0  0  0  0
    1.9746    1.1876   -0.7696 C   0  0  1  0  0  0  0  0  0  0  0  0
    3.7665    1.1808   -0.9999 S   0  0  0  0  0  0  0  0  0  0  0  0
   -0.3422    0.8168    0.5606 H   0  0  0  0  0  0  0  0  0  0  0  0
   -0.3933   -0.8120    0.4202 H   0  0  0  0  0  0  0  0  0  0  0  0
    1.7564   -0.9266   -0.4984 H   0  0  0  0  0  0  0  0  0  0  0  0
    2.3021   -1.1924    2.8430 H   0  0  0  0  0  0  0  0  0  0  0  0
    1.5376    1.1734   -1.7672 H   0  0  0  0  0  0  0  0  0  0  0  0
    1.6765    2.1160   -0.2829 H   0  0  0  0  0  0  0  0  0  0  0  0
    4.0801    1.5260    0.2575 H   0  0  0  0  0  0  0  0  0  0  0  0
  1  9  1  0
  1  8  1  0
  2 10  1  6
  2  1  1  0
  2  3  1  0
  3  4  1  0
  3  5  2  0
  4 11  1  0
  6 13  1  1
  6  2  1  0
  7  6  1  0
  7 14  1  0
 12  6  1  0
M  END
$$$$
