cys-relax
     RDKit          3D

 14 13  0  0  1  0  0  0  0  0999 V2000
   -0.0253   -0.0204   -0.0184 N   0  0  0  0  0  0  0  0  0  0  0  0
    1.4264   -0.0262    0.0083 C   0  0  2  0  0  0  0  0  0  0  0  0
    1.9240    0.0712    1.4550 C   0  0  0  0  0  0  0  0  0  0  0  0
    0.9886    0.4689    2.3093 O   0  0  0  0  0  0  0  0  0  0  0  0
    3.0575   -0.1529    1.7655 O   0  0  0  0  0  0  0  0  0  0  0  0
    1.9912    1.1838   -0.7322 C   0  0  1  0  0  0  0  0  0  0  0  0
    1.5015    1.2874   -2.4692 S   0  0  0  0  0  0  0  0  0  0  0  0
   -0.3997   -0.9560    0.0546 H   0  0  0  0  0  0  0  0  0  0  0  0
   -0.3543    0.3692   -0.8943 H   0  0  0  0  0  0  0  0  0  0  0  0
    1.8716   -0.9310   -0.4167 H   0  0  0  0  0  0  0  0  0  0  0  0
    0.1734    0.5470    1.7687 H   0  0  0  0  0  0  0  0  0  0  0  0
    1.6106    2.1039   -0.2831 H   0  0  0  0  0  0  0  0  0  0  0  0
    3.0746    1.1907   -0.6396 H   0  0  0  0  0  0  0  0  0  0  0  0
    2.1237    0.1704   -2.8776 H   0  0  0  0  0  0  0  0  0  0  0  0
  1  2  1  0
  1  8  1  0
  2 10  1  6
  2  3  1  0
  3  5  2  0
  3  4  1  0
  6 13  1  6
  6 12  1  0
  6  2  1  0
  7  6  1  0
  9  1  1  0
 11  4  1  0
 14  7  1  0
M  END
$$$$
