cys-relax
     RDKit          3D

 14 13  0  0  1  0  0  0  0  0999 V2000
    0.0090    0.0201   -0.0399 N   0  0  0  0  0  0  0  0  0  0  0  0
    1.4432    0.0371    0.0441 C   0  0  2  0  0  0  0  0  0  0  0  0
    1.9740    0.0120    1.4721 C   0  0  0  0  0  0  0  0  0  0  0  0
    3.3135    0.1254    1.5175 O   0  0  0  0  0  0  0  0  0  0  0  0
    1.3024   -0.1281    2.4537 O   0  0  0  0  0  0  0  0  0  0  0  0
    2.0195    1.2032   -0.7527 C   0  0  1  0  0  0  0  0  0  0  0  0
    1.5115    2.8371   -0.1578 S   0  0  0  0  0  0  0  0  0  0  0  0
   -0.3481    0.9189    0.2646 H   0  0  0  0  0  0  0  0  0  0  0  0
   -0.3701   -0.6678    0.5968 H   0  0  0  0  0  0  0  0  0  0  0  0
    1.8386   -0.8764   -0.4200 H   0  0  0  0  0  0  0  0  0  0  0  0
    3.5708    0.0542    2.4445 H   0  0  0  0  0  0  0  0  0  0  0  0
    3.1043    1.1519   -0.7924 H   0  0  0  0  0  0  0  0  0  0  0  0
    1.6321    1.1421   -1.7691 H   0  0  0  0  0  0  0  0  0  0  0  0
    2.2632    2.8439    0.9539 H   0  0  0  0  0  0  0  0  0  0  0  0
  1  2  1  0
  1  8  1  0
  1  9  1  0
  2 10  1  6
  2  3  1  0
  3  4  1  0
  3  5  2  0
  4 11  1  0
  6  7  1  0
  6  2  1  0
  7 14  1  0
  6 12  1  6
 13  6  1  0
M  END
$$$$
