cys-relax
     RDKit          3D

 14 13  0  0  1  0  0  0  0  0999 V2000
    0.0443   -0.0122   -0.0479 N   0  0  0  0  0  0  0  0  0  0  0  0
    1.4810    0.0334   -0.0029 C   0  0  2  0  0  0  0  0  0  0  0  0
    1.9260    0.0028    1.4447 C   0  0  0  0  0  0  0  0  0  0  0  0
    3.2217    0.3214    1.5871 O   0  0  0  0  0  0  0  0  0  0  0  0
    1.2306   -0.3184    2.3659 O   0  0  0  0  0  0  0  0  0  0  0  0
    2.0041    1.2609   -0.7427 C   0  0  1  0  0  0  0  0  0  0  0  0
    1.5783    1.2554   -2.5025 S   0  0  0  0  0  0  0  0  0  0  0  0
   -0.3205   -0.6586    0.6362 H   0  0  0  0  0  0  0  0  0  0  0  0
   -0.2786   -0.2602   -0.9708 H   0  0  0  0  0  0  0  0  0  0  0  0
    1.9748   -0.8499   -0.4471 H   0  0  0  0  0  0  0  0  0  0  0  0
    3.4295    0.2281    2.5243 H   0  0  0  0  0  0  0  0  0  0  0  0
    1.5230    2.1517   -0.3376 H   0  0  0  0  0  0  0  0  0  0  0  0
    3.0800    1.3645   -0.6301 H   0  0  0  0  0  0  0  0  0  0  0  0
    2.4667    0.3208   -2.8743 H   0  0  0  0  0  0  0  0  0  0  0  0
  1  2  1  0
  1  8  1  0
  2 10  1  6
  2  3  1  0
  3  4  1  0
  3  5  2  0
  4 11  1  0
  6 13  1  6
  6 12  1  0
  6  2  1  0
  7  6  1  0
  9  1  1  0
 14  7  1  0
M  END
$$$$
