-42.46107522
     RDKit          3D

 31 30  0  0  1  0  0  0  0  0999 V2000
    1.0607   -0.0066   -0.6947 N   0  0  0  0  0  0  0  0  0  0  0  0
   -0.1590   -0.1811    0.0579 C   0  0  2  0  0  0  0  0  0  0  0  0
   -0.8888   -1.3681   -0.5853 C   0  0  0  0  0  0  0  0  0  0  0  0
   -1.1167   -1.3840   -1.7777 O   0  0  0  0  0  0  0  0  0  0  0  0
   -1.0636    1.0712   -0.0474 C   0  0  2  0  0  0  0  0  0  0  0  0
   -0.3225    2.3120    0.4606 C   0  0  2  0  0  0  0  0  0  0  0  0
   -2.3639    0.8373    0.7175 C   0  0  1  0  0  0  0  0  0  0  0  0
   -1.0250    3.6148    0.0965 C   0  0  2  0  0  0  0  0  0  0  0  0
    0.9290    0.0031   -1.6996 H   0  0  0  0  0  0  0  0  0  0  0  0
    0.0820   -0.3745    1.1015 H   0  0  0  0  0  0  0  0  0  0  0  0
   -1.2977    1.2082   -1.1080 H   0  0  0  0  0  0  0  0  0  0  0  0
    0.6780    2.3262    0.0235 H   0  0  0  0  0  0  0  0  0  0  0  0
   -0.2159    2.2493    1.5470 H   0  0  0  0  0  0  0  0  0  0  0  0
   -3.0350    1.6817    0.5904 H   0  0  0  0  0  0  0  0  0  0  0  0
   -2.8719   -0.0510    0.3493 H   0  0  0  0  0  0  0  0  0  0  0  0
   -2.1673    0.7154    1.7818 H   0  0  0  0  0  0  0  0  0  0  0  0
   -1.9943    3.6922    0.5820 H   0  0  0  0  0  0  0  0  0  0  0  0
   -1.1711    3.6790   -0.9791 H   0  0  0  0  0  0  0  0  0  0  0  0
   -0.4219    4.4635    0.4105 H   0  0  0  0  0  0  0  0  0  0  0  0
   -1.2583   -2.3965    0.2061 N   0  0  0  0  0  0  0  0  0  0  0  0
   -1.6946   -3.1606   -0.2907 H   0  0  0  0  0  0  0  0  0  0  0  0
   -1.0290   -2.5751    1.6200 C   0  0  1  0  0  0  0  0  0  0  0  0
   -1.5239   -3.4886    1.9400 H   0  0  0  0  0  0  0  0  0  0  0  0
    0.0373   -2.6677    1.8444 H   0  0  0  0  0  0  0  0  0  0  0  0
   -1.4433   -1.7441    2.1931 H   0  0  0  0  0  0  0  0  0  0  0  0
    2.3448    0.0468   -0.2738 C   0  0  0  0  0  0  0  0  0  0  0  0
    3.2538    0.1550   -1.0699 O   0  0  0  0  0  0  0  0  0  0  0  0
    2.5765   -0.0235    1.2226 C   0  0  2  0  0  0  0  0  0  0  0  0
    2.2700   -0.9941    1.6074 H   0  0  0  0  0  0  0  0  0  0  0  0
    2.0257    0.7591    1.7378 H   0  0  0  0  0  0  0  0  0  0  0  0
    3.6391    0.1059    1.4070 H   0  0  0  0  0  0  0  0  0  0  0  0
  1 26  1  0
  1  2  1  0
  2 10  1  1
  3  2  1  0
  3 20  1  0
  4  3  2  0
  5 11  1  6
  5  2  1  0
  5  6  1  0
  5  7  1  0
  6 13  1  1
  7 16  1  1
  8 19  1  1
  8  6  1  0
  8 17  1  0
  9  1  1  0
 12  6  1  0
 14  7  1  0
 15  7  1  0
 18  8  1  0
 20 22  1  0
 21 20  1  0
 22 24  1  6
 22 23  1  0
 22 25  1  0
 26 28  1  0
 27 26  2  0
 28 31  1  6
 28 29  1  0
 28 30  1  0
M  END
$$$$
