-42.45683826
     RDKit          3D

 31 30  0  0  1  0  0  0  0  0999 V2000
    1.3867    0.4459   -0.3429 N   0  0  0  0  0  0  0  0  0  0  0  0
    0.0063    0.2615    0.0472 C   0  0  2  0  0  0  0  0  0  0  0  0
   -0.5568   -0.9769   -0.6657 C   0  0  0  0  0  0  0  0  0  0  0  0
   -0.3258   -1.2044   -1.8346 O   0  0  0  0  0  0  0  0  0  0  0  0
   -0.7827    1.5461   -0.3049 C   0  0  2  0  0  0  0  0  0  0  0  0
   -2.1069    1.6440    0.4631 C   0  0  2  0  0  0  0  0  0  0  0  0
   -1.0469    1.6656   -1.8053 C   0  0  1  0  0  0  0  0  0  0  0  0
   -1.9341    1.9897    1.9387 C   0  0  2  0  0  0  0  0  0  0  0  0
    1.5411    0.9776   -1.1885 H   0  0  0  0  0  0  0  0  0  0  0  0
   -0.0221    0.1145    1.1286 H   0  0  0  0  0  0  0  0  0  0  0  0
   -0.1468    2.3842    0.0048 H   0  0  0  0  0  0  0  0  0  0  0  0
   -2.6618    0.7104    0.3501 H   0  0  0  0  0  0  0  0  0  0  0  0
   -2.7064    2.4302   -0.0001 H   0  0  0  0  0  0  0  0  0  0  0  0
   -0.1511    1.4672   -2.3871 H   0  0  0  0  0  0  0  0  0  0  0  0
   -1.8061    0.9538   -2.1194 H   0  0  0  0  0  0  0  0  0  0  0  0
   -1.3946    2.6688   -2.0414 H   0  0  0  0  0  0  0  0  0  0  0  0
   -1.4404    2.9531    2.0429 H   0  0  0  0  0  0  0  0  0  0  0  0
   -1.3370    1.2490    2.4659 H   0  0  0  0  0  0  0  0  0  0  0  0
   -2.9043    2.0506    2.4267 H   0  0  0  0  0  0  0  0  0  0  0  0
   -1.3231   -1.8310    0.0545 N   0  0  0  0  0  0  0  0  0  0  0  0
   -1.6154   -2.6408   -0.4754 H   0  0  0  0  0  0  0  0  0  0  0  0
   -1.5965   -1.8569    1.4726 C   0  0  1  0  0  0  0  0  0  0  0  0
   -2.3113   -2.6520    1.6714 H   0  0  0  0  0  0  0  0  0  0  0  0
   -0.6923   -2.0571    2.0558 H   0  0  0  0  0  0  0  0  0  0  0  0
   -2.0333   -0.9176    1.8100 H   0  0  0  0  0  0  0  0  0  0  0  0
    2.4745   -0.2382    0.0868 C   0  0  0  0  0  0  0  0  0  0  0  0
    3.5644   -0.0448   -0.4079 O   0  0  0  0  0  0  0  0  0  0  0  0
    2.2515   -1.2057    1.2303 C   0  0  2  0  0  0  0  0  0  0  0  0
    3.2040   -1.6582    1.4901 H   0  0  0  0  0  0  0  0  0  0  0  0
    1.5571   -1.9847    0.9231 H   0  0  0  0  0  0  0  0  0  0  0  0
    1.8541   -0.6872    2.1005 H   0  0  0  0  0  0  0  0  0  0  0  0
  1  2  1  0
  1 26  1  0
  2 10  1  1
  3  2  1  0
  3 20  1  0
  4  3  2  0
  5 11  1  1
  5  2  1  0
  5  6  1  0
  6  8  1  0
  7  5  1  0
  8 17  1  6
  8 19  1  0
  8 18  1  0
  9  1  1  0
  6 12  1  1
 13  6  1  0
  7 14  1  6
 15  7  1  0
 16  7  1  0
 20 22  1  0
 21 20  1  0
 22 23  1  6
 22 25  1  0
 22 24  1  0
 26 28  1  0
 27 26  2  0
 28 29  1  1
 28 31  1  0
 30 28  1  0
M  END
$$$$
