-42.45682589
     RDKit          3D

 31 30  0  0  1  0  0  0  0  0999 V2000
    1.3944    0.4727   -0.3029 N   0  0  0  0  0  0  0  0  0  0  0  0
    0.0098    0.2770    0.0669 C   0  0  2  0  0  0  0  0  0  0  0  0
   -0.5378   -0.9644   -0.6528 C   0  0  0  0  0  0  0  0  0  0  0  0
   -0.2928   -1.1912   -1.8189 O   0  0  0  0  0  0  0  0  0  0  0  0
   -0.7835    1.5547   -0.2982 C   0  0  2  0  0  0  0  0  0  0  0  0
   -2.1288    1.6333    0.4348 C   0  0  2  0  0  0  0  0  0  0  0  0
   -1.0091    1.6786   -1.8046 C   0  0  1  0  0  0  0  0  0  0  0  0
   -1.9998    1.9832    1.9138 C   0  0  2  0  0  0  0  0  0  0  0  0
    1.5635    1.0650   -1.1040 H   0  0  0  0  0  0  0  0  0  0  0  0
   -0.0340    0.1297    1.1486 H   0  0  0  0  0  0  0  0  0  0  0  0
   -0.1660    2.3984    0.0330 H   0  0  0  0  0  0  0  0  0  0  0  0
   -2.6662    0.6913    0.3086 H   0  0  0  0  0  0  0  0  0  0  0  0
   -2.7280    2.4097   -0.0451 H   0  0  0  0  0  0  0  0  0  0  0  0
   -1.7581    0.9658   -2.1402 H   0  0  0  0  0  0  0  0  0  0  0  0
   -1.3531    2.6817   -2.0466 H   0  0  0  0  0  0  0  0  0  0  0  0
   -0.0984    1.4834   -2.3640 H   0  0  0  0  0  0  0  0  0  0  0  0
   -2.9825    2.0212    2.3785 H   0  0  0  0  0  0  0  0  0  0  0  0
   -1.5318    2.9581    2.0293 H   0  0  0  0  0  0  0  0  0  0  0  0
   -1.3977    1.2570    2.4553 H   0  0  0  0  0  0  0  0  0  0  0  0
   -1.3100   -1.8211    0.0585 N   0  0  0  0  0  0  0  0  0  0  0  0
   -1.5964   -2.6300   -0.4759 H   0  0  0  0  0  0  0  0  0  0  0  0
   -1.5964   -1.8503    1.4741 C   0  0  1  0  0  0  0  0  0  0  0  0
   -2.0515   -0.9181    1.8069 H   0  0  0  0  0  0  0  0  0  0  0  0
   -2.2998   -2.6569    1.6669 H   0  0  0  0  0  0  0  0  0  0  0  0
   -0.6943   -2.0357    2.0652 H   0  0  0  0  0  0  0  0  0  0  0  0
    2.4716   -0.2503    0.0880 C   0  0  0  0  0  0  0  0  0  0  0  0
    3.5682   -0.0328   -0.3812 O   0  0  0  0  0  0  0  0  0  0  0  0
    2.2263   -1.2931    1.1579 C   0  0  2  0  0  0  0  0  0  0  0  0
    3.1710   -1.7726    1.3969 H   0  0  0  0  0  0  0  0  0  0  0  0
    1.5282   -2.0411    0.7885 H   0  0  0  0  0  0  0  0  0  0  0  0
    1.8222   -0.8322    2.0569 H   0  0  0  0  0  0  0  0  0  0  0  0
  1  2  1  0
  1 26  1  0
  2 10  1  1
  3 20  1  0
  3  2  1  0
  4  3  2  0
  5 11  1  1
  5  2  1  0
  5  6  1  0
  6  8  1  0
  7  5  1  0
  8 18  1  6
  8 17  1  0
  8 19  1  0
  9  1  1  0
  6 12  1  1
 13  6  1  0
  7 14  1  6
 15  7  1  0
 16  7  1  0
 20 22  1  0
 21 20  1  0
 22 24  1  6
 22 23  1  0
 22 25  1  0
 26 28  1  0
 27 26  2  0
 28 29  1  1
 28 31  1  0
 30 28  1  0
M  END
$$$$
