-42.46087141
     RDKit          3D

 31 30  0  0  1  0  0  0  0  0999 V2000
    0.9294    0.1800   -0.6106 N   0  0  0  0  0  0  0  0  0  0  0  0
   -0.0436    0.1672    0.4552 C   0  0  2  0  0  0  0  0  0  0  0  0
   -0.5047   -1.2557    0.8146 C   0  0  0  0  0  0  0  0  0  0  0  0
   -0.5683   -1.6070    1.9775 O   0  0  0  0  0  0  0  0  0  0  0  0
   -1.2249    1.0985    0.1164 C   0  0  2  0  0  0  0  0  0  0  0  0
   -0.7280    2.5506    0.0668 C   0  0  2  0  0  0  0  0  0  0  0  0
   -2.3457    0.9299    1.1389 C   0  0  1  0  0  0  0  0  0  0  0  0
   -1.6853    3.4821   -0.6677 C   0  0  2  0  0  0  0  0  0  0  0  0
    0.6106    0.4681   -1.5255 H   0  0  0  0  0  0  0  0  0  0  0  0
    0.4232    0.5478    1.3733 H   0  0  0  0  0  0  0  0  0  0  0  0
   -1.6122    0.8326   -0.8739 H   0  0  0  0  0  0  0  0  0  0  0  0
    0.2414    2.5812   -0.4355 H   0  0  0  0  0  0  0  0  0  0  0  0
   -0.5820    2.9093    1.0875 H   0  0  0  0  0  0  0  0  0  0  0  0
   -3.1478    1.6361    0.9431 H   0  0  0  0  0  0  0  0  0  0  0  0
   -2.7602   -0.0743    1.1016 H   0  0  0  0  0  0  0  0  0  0  0  0
   -1.9686    1.1002    2.1443 H   0  0  0  0  0  0  0  0  0  0  0  0
   -2.6524    3.5242   -0.1736 H   0  0  0  0  0  0  0  0  0  0  0  0
   -1.8377    3.1475   -1.6920 H   0  0  0  0  0  0  0  0  0  0  0  0
   -1.2773    4.4893   -0.6965 H   0  0  0  0  0  0  0  0  0  0  0  0
   -0.8383   -2.1137   -0.1710 N   0  0  0  0  0  0  0  0  0  0  0  0
   -1.0649   -3.0372    0.1731 H   0  0  0  0  0  0  0  0  0  0  0  0
   -0.7689   -1.9689   -1.6060 C   0  0  1  0  0  0  0  0  0  0  0  0
   -1.3351   -2.7790   -2.0613 H   0  0  0  0  0  0  0  0  0  0  0  0
   -1.2135   -1.0267   -1.9230 H   0  0  0  0  0  0  0  0  0  0  0  0
    0.2611   -2.0183   -1.9695 H   0  0  0  0  0  0  0  0  0  0  0  0
    2.2031   -0.2863   -0.5789 C   0  0  0  0  0  0  0  0  0  0  0  0
    2.8625   -0.3238   -1.5983 O   0  0  0  0  0  0  0  0  0  0  0  0
    2.7211   -0.7174    0.7699 C   0  0  2  0  0  0  0  0  0  0  0  0
    3.7154   -1.1368    0.6471 H   0  0  0  0  0  0  0  0  0  0  0  0
    2.0652   -1.4564    1.2231 H   0  0  0  0  0  0  0  0  0  0  0  0
    2.7777    0.1439    1.4329 H   0  0  0  0  0  0  0  0  0  0  0  0
  1 26  1  0
  1  2  1  0
  2  3  1  0
  2 10  1  1
  3  4  2  0
  5 11  1  6
  5  2  1  0
  5  7  1  0
  6  5  1  0
  6 13  1  1
  7 16  1  1
  8 17  1  1
  8  6  1  0
  9  1  1  0
 12  6  1  0
 14  7  1  0
 15  7  1  0
 18  8  1  0
 19  8  1  0
 20 21  1  0
 20  3  1  0
 22 20  1  0
 22 23  1  6
 24 22  1  0
 25 22  1  0
 26 28  1  0
 27 26  2  0
 28 30  1  1
 28 31  1  0
 29 28  1  0
M  END
$$$$
