-42.45607626
     RDKit          3D

 31 30  0  0  1  0  0  0  0  0999 V2000
    1.2997    0.0770   -0.5151 N   0  0  0  0  0  0  0  0  0  0  0  0
    0.0961    0.4950    0.1658 C   0  0  2  0  0  0  0  0  0  0  0  0
   -0.7782   -0.6902    0.6120 C   0  0  0  0  0  0  0  0  0  0  0  0
   -1.4038   -0.6246    1.6555 O   0  0  0  0  0  0  0  0  0  0  0  0
   -0.6430    1.5629   -0.6804 C   0  0  2  0  0  0  0  0  0  0  0  0
   -1.3327    2.6329    0.1835 C   0  0  2  0  0  0  0  0  0  0  0  0
   -1.6107    0.9672   -1.7011 C   0  0  1  0  0  0  0  0  0  0  0  0
   -2.5902    2.1779    0.9138 C   0  0  2  0  0  0  0  0  0  0  0  0
    1.3435    0.2134   -1.5152 H   0  0  0  0  0  0  0  0  0  0  0  0
    0.3853    0.9792    1.1083 H   0  0  0  0  0  0  0  0  0  0  0  0
    0.1475    2.0907   -1.2307 H   0  0  0  0  0  0  0  0  0  0  0  0
   -1.5896    3.4695   -0.4723 H   0  0  0  0  0  0  0  0  0  0  0  0
   -0.6114    3.0062    0.9141 H   0  0  0  0  0  0  0  0  0  0  0  0
   -2.1606    1.7675   -2.1912 H   0  0  0  0  0  0  0  0  0  0  0  0
   -1.0801    0.4132   -2.4724 H   0  0  0  0  0  0  0  0  0  0  0  0
   -2.3243    0.3028   -1.2222 H   0  0  0  0  0  0  0  0  0  0  0  0
   -3.3760    1.9142    0.2110 H   0  0  0  0  0  0  0  0  0  0  0  0
   -2.9580    2.9864    1.5413 H   0  0  0  0  0  0  0  0  0  0  0  0
   -2.3843    1.3198    1.5455 H   0  0  0  0  0  0  0  0  0  0  0  0
   -0.8409   -1.8217   -0.1192 N   0  0  0  0  0  0  0  0  0  0  0  0
   -1.3974   -2.5323    0.3385 H   0  0  0  0  0  0  0  0  0  0  0  0
   -0.1562   -2.2467   -1.3176 C   0  0  1  0  0  0  0  0  0  0  0  0
   -0.6782   -3.1135   -1.7188 H   0  0  0  0  0  0  0  0  0  0  0  0
   -0.1667   -1.4655   -2.0736 H   0  0  0  0  0  0  0  0  0  0  0  0
    0.8809   -2.5282   -1.1166 H   0  0  0  0  0  0  0  0  0  0  0  0
    2.3714   -0.5625    0.0142 C   0  0  0  0  0  0  0  0  0  0  0  0
    3.2799   -0.9308   -0.7032 O   0  0  0  0  0  0  0  0  0  0  0  0
    2.3558   -0.7663    1.5094 C   0  0  2  0  0  0  0  0  0  0  0  0
    3.2181   -1.3642    1.7904 H   0  0  0  0  0  0  0  0  0  0  0  0
    1.4442   -1.2657    1.8284 H   0  0  0  0  0  0  0  0  0  0  0  0
    2.4144    0.1973    2.0121 H   0  0  0  0  0  0  0  0  0  0  0  0
  1 26  1  0
  1  2  1  0
  2  3  1  0
  2 10  1  1
  3  4  2  0
  5 11  1  6
  5  2  1  0
  5  6  1  0
  6  8  1  0
  6 13  1  1
  7 16  1  1
  7  5  1  0
  8 18  1  1
  8 19  1  0
  9  1  1  0
 12  6  1  0
 14  7  1  0
 15  7  1  0
 17  8  1  0
 20 21  1  0
 20  3  1  0
 22 25  1  1
 22 20  1  0
 23 22  1  0
 24 22  1  0
 26 28  1  0
 27 26  2  0
 28 29  1  1
 28 30  1  0
 28 31  1  0
M  END
$$$$
