-42.45504384
     RDKit          3D

 31 30  0  0  1  0  0  0  0  0999 V2000
    0.9414   -0.1256    0.8437 N   0  0  0  0  0  0  0  0  0  0  0  0
   -0.5026   -0.0807    0.7632 C   0  0  2  0  0  0  0  0  0  0  0  0
   -1.0733   -1.0197   -0.3046 C   0  0  0  0  0  0  0  0  0  0  0  0
   -1.8582   -0.6674   -1.1613 O   0  0  0  0  0  0  0  0  0  0  0  0
   -1.0771    1.3606    0.6885 C   0  0  2  0  0  0  0  0  0  0  0  0
   -0.3632    2.2821   -0.3141 C   0  0  2  0  0  0  0  0  0  0  0  0
   -1.0380    1.9795    2.0876 C   0  0  1  0  0  0  0  0  0  0  0  0
   -1.0605    2.3467   -1.6691 C   0  0  2  0  0  0  0  0  0  0  0  0
    1.3189    0.1054    1.7539 H   0  0  0  0  0  0  0  0  0  0  0  0
   -0.8716   -0.5036    1.7107 H   0  0  0  0  0  0  0  0  0  0  0  0
   -2.1216    1.2565    0.3801 H   0  0  0  0  0  0  0  0  0  0  0  0
    0.6735    1.9662   -0.4406 H   0  0  0  0  0  0  0  0  0  0  0  0
   -0.3317    3.2909    0.1032 H   0  0  0  0  0  0  0  0  0  0  0  0
   -0.0099    2.1238    2.4146 H   0  0  0  0  0  0  0  0  0  0  0  0
   -1.5298    2.9489    2.0815 H   0  0  0  0  0  0  0  0  0  0  0  0
   -1.5496    1.3493    2.8132 H   0  0  0  0  0  0  0  0  0  0  0  0
   -0.4505    2.8945   -2.3838 H   0  0  0  0  0  0  0  0  0  0  0  0
   -2.0176    2.8550   -1.5742 H   0  0  0  0  0  0  0  0  0  0  0  0
   -1.2541    1.3516   -2.0585 H   0  0  0  0  0  0  0  0  0  0  0  0
   -0.7176   -2.3175   -0.1954 N   0  0  0  0  0  0  0  0  0  0  0  0
   -1.1137   -2.9100   -0.9117 H   0  0  0  0  0  0  0  0  0  0  0  0
    0.1393   -2.9505    0.7770 C   0  0  1  0  0  0  0  0  0  0  0  0
    1.1970   -2.7705    0.5687 H   0  0  0  0  0  0  0  0  0  0  0  0
   -0.0787   -2.5850    1.7809 H   0  0  0  0  0  0  0  0  0  0  0  0
   -0.0417   -4.0231    0.7561 H   0  0  0  0  0  0  0  0  0  0  0  0
    1.9100   -0.1679   -0.1106 C   0  0  0  0  0  0  0  0  0  0  0  0
    3.0707   -0.0412    0.2280 O   0  0  0  0  0  0  0  0  0  0  0  0
    1.5137   -0.4424   -1.5401 C   0  0  2  0  0  0  0  0  0  0  0  0
    0.5544   -0.0126   -1.8010 H   0  0  0  0  0  0  0  0  0  0  0  0
    1.4751   -1.5188   -1.7010 H   0  0  0  0  0  0  0  0  0  0  0  0
    2.2865   -0.0357   -2.1881 H   0  0  0  0  0  0  0  0  0  0  0  0
  1  9  1  0
  2  1  1  0
  2 10  1  1
  3 20  1  0
  3  2  1  0
  4  3  2  0
  5 11  1  6
  5  2  1  0
  5  7  1  0
  6 13  1  1
  6  5  1  0
  7 14  1  1
  7 16  1  0
  8 18  1  1
  8  6  1  0
 12  6  1  0
 15  7  1  0
 17  8  1  0
 19  8  1  0
 20 22  1  0
 21 20  1  0
 22 24  1  1
 23 22  1  0
 25 22  1  0
 26 27  2  0
 26  1  1  0
 28 26  1  0
 28 29  1  6
 30 28  1  0
 31 28  1  0
M  END
$$$$
