-42.45283800
     RDKit          3D

 31 30  0  0  1  0  0  0  0  0999 V2000
    1.0743   -0.1763    1.0123 N   0  0  0  0  0  0  0  0  0  0  0  0
   -0.2751    0.1821    0.5978 C   0  0  2  0  0  0  0  0  0  0  0  0
   -0.7584   -0.6986   -0.5610 C   0  0  0  0  0  0  0  0  0  0  0  0
   -0.9894   -0.3194   -1.6898 O   0  0  0  0  0  0  0  0  0  0  0  0
   -0.4001    1.7148    0.4140 C   0  0  2  0  0  0  0  0  0  0  0  0
   -1.8436    2.2035    0.6158 C   0  0  2  0  0  0  0  0  0  0  0  0
    0.2218    2.2388   -0.8774 C   0  0  1  0  0  0  0  0  0  0  0  0
   -2.8835    1.6148   -0.3287 C   0  0  2  0  0  0  0  0  0  0  0  0
    1.2957    0.1160    1.9574 H   0  0  0  0  0  0  0  0  0  0  0  0
   -0.9241   -0.0767    1.4478 H   0  0  0  0  0  0  0  0  0  0  0  0
    0.1784    2.1456    1.2449 H   0  0  0  0  0  0  0  0  0  0  0  0
   -1.8389    3.2896    0.5003 H   0  0  0  0  0  0  0  0  0  0  0  0
   -2.1430    1.9897    1.6466 H   0  0  0  0  0  0  0  0  0  0  0  0
    0.1092    3.3198   -0.9240 H   0  0  0  0  0  0  0  0  0  0  0  0
    1.2849    2.0096   -0.9007 H   0  0  0  0  0  0  0  0  0  0  0  0
   -0.2532    1.7988   -1.7471 H   0  0  0  0  0  0  0  0  0  0  0  0
   -3.0460    0.5588   -0.1266 H   0  0  0  0  0  0  0  0  0  0  0  0
   -2.5723    1.7151   -1.3633 H   0  0  0  0  0  0  0  0  0  0  0  0
   -3.8311    2.1336   -0.1993 H   0  0  0  0  0  0  0  0  0  0  0  0
   -0.9472   -1.9963   -0.2332 N   0  0  0  0  0  0  0  0  0  0  0  0
   -1.3070   -2.5610   -0.9900 H   0  0  0  0  0  0  0  0  0  0  0  0
   -0.7706   -2.6412    1.0455 C   0  0  1  0  0  0  0  0  0  0  0  0
    0.1920   -2.3756    1.4829 H   0  0  0  0  0  0  0  0  0  0  0  0
   -1.5661   -2.3660    1.7455 H   0  0  0  0  0  0  0  0  0  0  0  0
   -0.7996   -3.7186    0.9015 H   0  0  0  0  0  0  0  0  0  0  0  0
    2.2044   -0.4941    0.3204 C   0  0  0  0  0  0  0  0  0  0  0  0
    3.2631   -0.5093    0.9168 O   0  0  0  0  0  0  0  0  0  0  0  0
    2.0850   -0.8975   -1.1255 C   0  0  2  0  0  0  0  0  0  0  0  0
    1.4575   -0.2192   -1.6926 H   0  0  0  0  0  0  0  0  0  0  0  0
    1.6609   -1.8981   -1.1885 H   0  0  0  0  0  0  0  0  0  0  0  0
    3.0841   -0.9191   -1.5532 H   0  0  0  0  0  0  0  0  0  0  0  0
  1  9  1  0
  2  1  1  0
  2 10  1  1
  3 20  1  0
  3  2  1  0
  4  3  2  0
  5  2  1  0
  5  6  1  0
  5 11  1  1
  6 13  1  1
  7  5  1  0
  8 19  1  6
  8 17  1  0
  8  6  1  0
 12  6  1  0
  7 14  1  6
 15  7  1  0
 16  7  1  0
 18  8  1  0
 20 22  1  0
 21 20  1  0
 22 23  1  1
 22 24  1  0
 25 22  1  0
 26 27  2  0
 26  1  1  0
 28 26  1  0
 28 29  1  6
 30 28  1  0
 31 28  1  0
M  END
$$$$
