-42.45965657
     RDKit          3D

 31 30  0  0  1  0  0  0  0  0999 V2000
    1.0715    0.2254   -0.5104 N   0  0  0  0  0  0  0  0  0  0  0  0
   -0.0535   -0.2295    0.2622 C   0  0  2  0  0  0  0  0  0  0  0  0
   -0.9274   -1.1024   -0.6466 C   0  0  0  0  0  0  0  0  0  0  0  0
   -0.8872   -1.0186   -1.8571 O   0  0  0  0  0  0  0  0  0  0  0  0
   -0.8743    0.9495    0.8682 C   0  0  2  0  0  0  0  0  0  0  0  0
   -0.9946    2.1589   -0.0677 C   0  0  2  0  0  0  0  0  0  0  0  0
   -0.2350    1.3952    2.1843 C   0  0  1  0  0  0  0  0  0  0  0  0
   -1.9285    1.9431   -1.2526 C   0  0  2  0  0  0  0  0  0  0  0  0
    0.8373    0.4896   -1.4610 H   0  0  0  0  0  0  0  0  0  0  0  0
    0.3074   -0.8528    1.0837 H   0  0  0  0  0  0  0  0  0  0  0  0
   -1.8852    0.5818    1.0760 H   0  0  0  0  0  0  0  0  0  0  0  0
   -0.0020    2.4402   -0.4222 H   0  0  0  0  0  0  0  0  0  0  0  0
   -1.3766    2.9947    0.5242 H   0  0  0  0  0  0  0  0  0  0  0  0
    0.7477    1.8212    1.9962 H   0  0  0  0  0  0  0  0  0  0  0  0
   -0.8472    2.1569    2.6617 H   0  0  0  0  0  0  0  0  0  0  0  0
   -0.1313    0.5628    2.8785 H   0  0  0  0  0  0  0  0  0  0  0  0
   -2.0109    2.8615   -1.8290 H   0  0  0  0  0  0  0  0  0  0  0  0
   -2.9239    1.6673   -0.9082 H   0  0  0  0  0  0  0  0  0  0  0  0
   -1.5667    1.1608   -1.9118 H   0  0  0  0  0  0  0  0  0  0  0  0
   -1.7624   -1.9724   -0.0388 N   0  0  0  0  0  0  0  0  0  0  0  0
   -2.2812   -2.5550   -0.6817 H   0  0  0  0  0  0  0  0  0  0  0  0
   -1.8125   -2.3424    1.3553 C   0  0  1  0  0  0  0  0  0  0  0  0
   -1.8555   -1.4609    1.9934 H   0  0  0  0  0  0  0  0  0  0  0  0
   -2.7100   -2.9322    1.5270 H   0  0  0  0  0  0  0  0  0  0  0  0
   -0.9443   -2.9442    1.6437 H   0  0  0  0  0  0  0  0  0  0  0  0
    2.3966    0.1107   -0.2623 C   0  0  0  0  0  0  0  0  0  0  0  0
    3.2122    0.4772   -1.0823 O   0  0  0  0  0  0  0  0  0  0  0  0
    2.8013   -0.4717    1.0778 C   0  0  2  0  0  0  0  0  0  0  0  0
    2.5039   -1.5174    1.1337 H   0  0  0  0  0  0  0  0  0  0  0  0
    2.3500    0.0746    1.9008 H   0  0  0  0  0  0  0  0  0  0  0  0
    3.8829   -0.4126    1.1590 H   0  0  0  0  0  0  0  0  0  0  0  0
  1 26  1  0
  1  2  1  0
  2  5  1  0
  2 10  1  1
  3 20  1  0
  3  2  1  0
  4  3  2  0
  5 11  1  1
  5  7  1  0
  6 13  1  1
  6  5  1  0
  7 15  1  1
  7 16  1  0
  8 18  1  1
  8  6  1  0
  9  1  1  0
 12  6  1  0
 14  7  1  0
 17  8  1  0
 19  8  1  0
 20 22  1  0
 21 20  1  0
 22 24  1  6
 22 25  1  0
 22 23  1  0
 26 28  1  0
 27 26  2  0
 28 29  1  6
 28 31  1  0
 28 30  1  0
M  END
$$$$
