 energy: -45.885751827916 gnorm: 0.000026855322 xtb: 6.5.1 (9af7eec)
     RDKit          3D

 33 32  0  0  0  0  0  0  0  0999 V2000
   -0.5696   -0.3711    0.2243 N   0  0  0  0  0  0  0  0  0  0  0  0
   -0.9596   -1.7631    0.4231 C   0  0  2  0  0  0  0  0  0  0  0  0
   -0.7521   -2.2205    1.8823 C   0  0  0  0  0  0  0  0  0  0  0  0
   -1.6791   -2.6325    2.5506 O   0  0  0  0  0  0  0  0  0  0  0  0
   -0.2383   -2.7209   -0.5347 C   0  0  1  0  0  0  0  0  0  0  0  0
   -0.4179   -2.3145   -1.9958 C   0  0  2  0  0  0  0  0  0  0  0  0
   -1.3254    0.2907    0.1541 H   0  0  0  0  0  0  0  0  0  0  0  0
   -2.0363   -1.8140    0.2334 H   0  0  0  0  0  0  0  0  0  0  0  0
    0.8226   -2.7410   -0.2918 H   0  0  0  0  0  0  0  0  0  0  0  0
   -0.0086   -1.3117   -2.1436 H   0  0  0  0  0  0  0  0  0  0  0  0
   -1.4843   -2.2710   -2.2333 H   0  0  0  0  0  0  0  0  0  0  0  0
    0.5156   -2.1348    2.3066 N   0  0  0  0  0  0  0  0  0  0  0  0
    1.2216   -1.7503    1.6866 H   0  0  0  0  0  0  0  0  0  0  0  0
    0.9142   -2.5206    3.6374 C   0  0  2  0  0  0  0  0  0  0  0  0
    1.6700   -3.3065    3.5941 H   0  0  0  0  0  0  0  0  0  0  0  0
    0.0325   -2.8931    4.1567 H   0  0  0  0  0  0  0  0  0  0  0  0
    1.3217   -1.6654    4.1799 H   0  0  0  0  0  0  0  0  0  0  0  0
    0.6855    0.1085    0.1233 C   0  0  0  0  0  0  0  0  0  0  0  0
    1.6850   -0.5788    0.2526 O   0  0  0  0  0  0  0  0  0  0  0  0
    0.7479    1.5920   -0.1669 C   0  0  2  0  0  0  0  0  0  0  0  0
    1.7858    1.8885   -0.2883 H   0  0  0  0  0  0  0  0  0  0  0  0
    0.3129    2.1492    0.6603 H   0  0  0  0  0  0  0  0  0  0  0  0
    0.1968    1.8277   -1.0748 H   0  0  0  0  0  0  0  0  0  0  0  0
   -0.6449   -3.7212   -0.3750 H   0  0  0  0  0  0  0  0  0  0  0  0
    0.2632   -3.2785   -2.9684 C   0  0  2  0  0  0  0  0  0  0  0  0
    0.0742   -2.9265   -3.9866 H   0  0  0  0  0  0  0  0  0  0  0  0
   -0.1817   -4.2707   -2.8722 H   0  0  0  0  0  0  0  0  0  0  0  0
    1.7859   -3.4083   -2.7653 C   0  0  2  0  0  0  0  0  0  0  0  0
    2.1856   -4.0094   -3.5891 H   0  0  0  0  0  0  0  0  0  0  0  0
    1.9931   -3.9453   -1.8374 H   0  0  0  0  0  0  0  0  0  0  0  0
    2.5367   -2.1699   -2.7298 N   0  0  0  0  0  0  0  0  0  0  0  0
    2.3035   -1.5900   -3.5288 H   0  0  0  0  0  0  0  0  0  0  0  0
    2.3360   -1.6446   -1.8855 H   0  0  0  0  0  0  0  0  0  0  0  0
  1  7  1  0
  1  2  1  0
  1 18  1  0
  2  5  1  0
  2  3  1  0
  2  8  1  6
  3  4  1  0
  3 12  1  0
  5 24  1  6
  5  9  1  0
  5  6  1  0
  6 25  1  0
  6 11  1  6
  6 10  1  0
 12 14  1  0
 12 13  1  0
 14 15  1  6
 14 16  1  0
 14 17  1  0
 18 20  1  0
 18 19  1  0
 20 22  1  1
 20 23  1  0
 20 21  1  0
 25 26  1  6
 25 27  1  0
 25 28  1  0
 28 31  1  0
 28 30  1  1
 28 29  1  0
 31 33  1  0
 31 32  1  0
M  END
$$$$
