 energy: -45.886843105591 gnorm: 0.000036593368 xtb: 6.5.1 (9af7eec)
     RDKit          3D

 33 32  0  0  0  0  0  0  0  0999 V2000
   -0.9978    0.4595    0.0435 N   0  0  0  0  0  0  0  0  0  0  0  0
   -0.7755   -0.9767    0.0475 C   0  0  2  0  0  0  0  0  0  0  0  0
   -1.7161   -1.6476   -0.9793 C   0  0  0  0  0  0  0  0  0  0  0  0
   -2.6755   -2.3165   -0.6551 O   0  0  0  0  0  0  0  0  0  0  0  0
   -0.9981   -1.5471    1.4436 C   0  0  1  0  0  0  0  0  0  0  0  0
    0.0362   -1.0396    2.4457 C   0  0  2  0  0  0  0  0  0  0  0  0
   -1.6818    0.8129    0.6940 H   0  0  0  0  0  0  0  0  0  0  0  0
    0.2595   -1.1400   -0.2774 H   0  0  0  0  0  0  0  0  0  0  0  0
   -2.0058   -1.2855    1.7739 H   0  0  0  0  0  0  0  0  0  0  0  0
    0.0687    0.0525    2.4080 H   0  0  0  0  0  0  0  0  0  0  0  0
    1.0272   -1.3975    2.1543 H   0  0  0  0  0  0  0  0  0  0  0  0
   -1.3506   -1.3981   -2.2464 N   0  0  0  0  0  0  0  0  0  0  0  0
   -0.5740   -0.7668   -2.4146 H   0  0  0  0  0  0  0  0  0  0  0  0
   -2.1074   -1.8688   -3.3803 C   0  0  2  0  0  0  0  0  0  0  0  0
   -2.5324   -1.0316   -3.9377 H   0  0  0  0  0  0  0  0  0  0  0  0
   -2.9119   -2.4996   -3.0052 H   0  0  0  0  0  0  0  0  0  0  0  0
   -1.4683   -2.4507   -4.0459 H   0  0  0  0  0  0  0  0  0  0  0  0
   -0.4274    1.2899   -0.8517 C   0  0  0  0  0  0  0  0  0  0  0  0
    0.3074    0.8875   -1.7371 O   0  0  0  0  0  0  0  0  0  0  0  0
   -0.7752    2.7474   -0.6543 C   0  0  2  0  0  0  0  0  0  0  0  0
   -0.2188    3.3482   -1.3675 H   0  0  0  0  0  0  0  0  0  0  0  0
   -0.5265    3.0633    0.3563 H   0  0  0  0  0  0  0  0  0  0  0  0
   -1.8408    2.8977   -0.8157 H   0  0  0  0  0  0  0  0  0  0  0  0
   -0.9572   -2.6336    1.3684 H   0  0  0  0  0  0  0  0  0  0  0  0
   -0.2665   -1.4645    3.8838 C   0  0  2  0  0  0  0  0  0  0  0  0
   -1.2676   -1.1252    4.1570 H   0  0  0  0  0  0  0  0  0  0  0  0
    0.4456   -0.9703    4.5516 H   0  0  0  0  0  0  0  0  0  0  0  0
   -0.1871   -2.9825    4.1225 C   0  0  2  0  0  0  0  0  0  0  0  0
   -0.9131   -3.4977    3.4903 H   0  0  0  0  0  0  0  0  0  0  0  0
   -0.4533   -3.1817    5.1651 H   0  0  0  0  0  0  0  0  0  0  0  0
    1.1086   -3.5894    3.8882 N   0  0  0  0  0  0  0  0  0  0  0  0
    1.3705   -3.5057    2.9123 H   0  0  0  0  0  0  0  0  0  0  0  0
    1.8206   -3.1246    4.4423 H   0  0  0  0  0  0  0  0  0  0  0  0
  1  7  1  0
  1  2  1  0
  1 18  1  0
  2  5  1  0
  2  3  1  0
  2  8  1  6
  3  4  1  0
  3 12  1  0
  5 24  1  6
  5  9  1  0
  5  6  1  0
  6 25  1  0
  6 11  1  6
  6 10  1  0
 12 14  1  0
 12 13  1  0
 14 15  1  6
 14 16  1  0
 14 17  1  0
 18 20  1  0
 18 19  1  0
 20 22  1  1
 20 23  1  0
 20 21  1  0
 25 26  1  1
 25 27  1  0
 25 28  1  0
 28 31  1  0
 28 30  1  1
 28 29  1  0
 31 33  1  0
 31 32  1  0
M  END
$$$$
