 energy: -45.887832604009 gnorm: 0.000045077791 xtb: 6.5.1 (9af7eec)
     RDKit          3D

 33 32  0  0  0  0  0  0  0  0999 V2000
   -1.1707    0.6547    0.5251 N   0  0  0  0  0  0  0  0  0  0  0  0
   -0.5558   -0.6488    0.4684 C   0  0  2  0  0  0  0  0  0  0  0  0
   -1.6012   -1.6778    0.9054 C   0  0  0  0  0  0  0  0  0  0  0  0
   -2.5633   -1.3630    1.5768 O   0  0  0  0  0  0  0  0  0  0  0  0
    0.6547   -0.7453    1.4190 C   0  0  1  0  0  0  0  0  0  0  0  0
    1.7261    0.3046    1.1239 C   0  0  2  0  0  0  0  0  0  0  0  0
   -1.8905    0.7437    1.2305 H   0  0  0  0  0  0  0  0  0  0  0  0
   -0.2426   -0.8258   -0.5654 H   0  0  0  0  0  0  0  0  0  0  0  0
    0.2929   -0.6111    2.4415 H   0  0  0  0  0  0  0  0  0  0  0  0
    2.4682    0.2809    1.9259 H   0  0  0  0  0  0  0  0  0  0  0  0
    1.2565    1.2902    1.1351 H   0  0  0  0  0  0  0  0  0  0  0  0
   -1.3397   -2.9375    0.5125 N   0  0  0  0  0  0  0  0  0  0  0  0
   -0.5328   -3.1205   -0.0623 H   0  0  0  0  0  0  0  0  0  0  0  0
   -2.1807   -4.0564    0.8649 C   0  0  2  0  0  0  0  0  0  0  0  0
   -2.5867   -4.5310   -0.0298 H   0  0  0  0  0  0  0  0  0  0  0  0
   -2.9978   -3.6710    1.4721 H   0  0  0  0  0  0  0  0  0  0  0  0
   -1.6186   -4.7947    1.4397 H   0  0  0  0  0  0  0  0  0  0  0  0
   -1.0557    1.5698   -0.4623 C   0  0  0  0  0  0  0  0  0  0  0  0
   -0.3160    1.4201   -1.4144 O   0  0  0  0  0  0  0  0  0  0  0  0
   -1.9066    2.8024   -0.2478 C   0  0  2  0  0  0  0  0  0  0  0  0
   -1.6918    3.5293   -1.0257 H   0  0  0  0  0  0  0  0  0  0  0  0
   -1.6999    3.2398    0.7261 H   0  0  0  0  0  0  0  0  0  0  0  0
   -2.9595    2.5318   -0.2914 H   0  0  0  0  0  0  0  0  0  0  0  0
    1.0873   -1.7451    1.3420 H   0  0  0  0  0  0  0  0  0  0  0  0
    2.4277    0.0920   -0.2154 C   0  0  2  0  0  0  0  0  0  0  0  0
    1.6876    0.0641   -1.0167 H   0  0  0  0  0  0  0  0  0  0  0  0
    2.9641   -0.8599   -0.2025 H   0  0  0  0  0  0  0  0  0  0  0  0
    3.4125    1.2266   -0.5419 C   0  0  2  0  0  0  0  0  0  0  0  0
    3.9840    0.9483   -1.4329 H   0  0  0  0  0  0  0  0  0  0  0  0
    4.1185    1.3597    0.2835 H   0  0  0  0  0  0  0  0  0  0  0  0
    2.7963    2.5109   -0.8163 N   0  0  0  0  0  0  0  0  0  0  0  0
    2.0643    2.3919   -1.5113 H   0  0  0  0  0  0  0  0  0  0  0  0
    2.3512    2.8735    0.0204 H   0  0  0  0  0  0  0  0  0  0  0  0
  1  7  1  0
  1  2  1  0
  1 18  1  0
  2  5  1  0
  2  3  1  0
  2  8  1  6
  3  4  1  0
  3 12  1  0
  5 24  1  1
  5  9  1  0
  5  6  1  0
  6 25  1  0
  6 11  1  6
  6 10  1  0
 12 14  1  0
 12 13  1  0
 14 15  1  6
 14 16  1  0
 14 17  1  0
 18 20  1  0
 18 19  1  0
 20 22  1  1
 20 23  1  0
 20 21  1  0
 25 26  1  6
 25 27  1  0
 25 28  1  0
 28 31  1  0
 28 30  1  1
 28 29  1  0
 31 33  1  0
 31 32  1  0
M  END
$$$$
