 energy: -45.883982104151 gnorm: 0.000030922107 xtb: 6.5.1 (9af7eec)
     RDKit          3D

 33 32  0  0  0  0  0  0  0  0999 V2000
   -1.6149    0.3439    0.3369 N   0  0  0  0  0  0  0  0  0  0  0  0
   -0.7667   -0.6569   -0.2622 C   0  0  2  0  0  0  0  0  0  0  0  0
   -1.6601   -1.8343   -0.6552 C   0  0  0  0  0  0  0  0  0  0  0  0
   -2.7611   -1.9924   -0.1611 O   0  0  0  0  0  0  0  0  0  0  0  0
    0.3519   -1.1344    0.6897 C   0  0  1  0  0  0  0  0  0  0  0  0
   -0.1782   -1.8221    1.9514 C   0  0  2  0  0  0  0  0  0  0  0  0
   -2.4941   -0.0138    0.6895 H   0  0  0  0  0  0  0  0  0  0  0  0
   -0.2993   -0.2114   -1.1500 H   0  0  0  0  0  0  0  0  0  0  0  0
    0.9896   -1.8277    0.1367 H   0  0  0  0  0  0  0  0  0  0  0  0
    0.5866   -2.5007    2.3346 H   0  0  0  0  0  0  0  0  0  0  0  0
   -1.0396   -2.4368    1.6821 H   0  0  0  0  0  0  0  0  0  0  0  0
   -1.1170   -2.6738   -1.5518 N   0  0  0  0  0  0  0  0  0  0  0  0
   -0.2075   -2.4689   -1.9337 H   0  0  0  0  0  0  0  0  0  0  0  0
   -1.7877   -3.8643   -2.0170 C   0  0  2  0  0  0  0  0  0  0  0  0
   -1.9466   -3.8202   -3.0956 H   0  0  0  0  0  0  0  0  0  0  0  0
   -2.7506   -3.9162   -1.5121 H   0  0  0  0  0  0  0  0  0  0  0  0
   -1.2032   -4.7539   -1.7760 H   0  0  0  0  0  0  0  0  0  0  0  0
   -1.4099    1.6693    0.1657 C   0  0  0  0  0  0  0  0  0  0  0  0
   -0.4303    2.1086   -0.3989 O   0  0  0  0  0  0  0  0  0  0  0  0
   -2.4945    2.5321    0.7760 C   0  0  2  0  0  0  0  0  0  0  0  0
   -2.2861    3.5759    0.5612 H   0  0  0  0  0  0  0  0  0  0  0  0
   -2.5196    2.3893    1.8546 H   0  0  0  0  0  0  0  0  0  0  0  0
   -3.4652    2.2636    0.3654 H   0  0  0  0  0  0  0  0  0  0  0  0
    0.9572   -0.2683    0.9619 H   0  0  0  0  0  0  0  0  0  0  0  0
   -0.5744   -0.8428    3.0632 C   0  0  2  0  0  0  0  0  0  0  0  0
   -0.8644    0.1158    2.6301 H   0  0  0  0  0  0  0  0  0  0  0  0
    0.2832   -0.6599    3.7130 H   0  0  0  0  0  0  0  0  0  0  0  0
   -1.7463   -1.3724    3.9078 C   0  0  2  0  0  0  0  0  0  0  0  0
   -1.8311   -0.7762    4.8210 H   0  0  0  0  0  0  0  0  0  0  0  0
   -1.5465   -2.4072    4.2000 H   0  0  0  0  0  0  0  0  0  0  0  0
   -3.0412   -1.3417    3.2552 N   0  0  0  0  0  0  0  0  0  0  0  0
   -3.2963   -0.3850    3.0324 H   0  0  0  0  0  0  0  0  0  0  0  0
   -3.0259   -1.8648    2.3849 H   0  0  0  0  0  0  0  0  0  0  0  0
  1  7  1  0
  1  2  1  0
  1 18  1  0
  2  5  1  0
  2  3  1  0
  2  8  1  6
  3  4  1  0
  3 12  1  0
  5 24  1  1
  5  9  1  0
  5  6  1  0
  6 25  1  0
  6 11  1  6
  6 10  1  0
 12 14  1  0
 12 13  1  0
 14 15  1  6
 14 16  1  0
 14 17  1  0
 18 20  1  0
 18 19  1  0
 20 22  1  1
 20 23  1  0
 20 21  1  0
 25 26  1  6
 25 27  1  0
 25 28  1  0
 28 31  1  0
 28 30  1  1
 28 29  1  0
 31 33  1  0
 31 32  1  0
M  END
$$$$
