 energy: -45.886727259966 gnorm: 0.000048035533 xtb: 6.5.1 (9af7eec)
     RDKit          3D

 33 32  0  0  0  0  0  0  0  0999 V2000
   -0.7890    1.1498    0.6539 N   0  0  0  0  0  0  0  0  0  0  0  0
   -0.9283   -0.2957    0.5667 C   0  0  2  0  0  0  0  0  0  0  0  0
   -2.1944   -0.6278   -0.2532 C   0  0  0  0  0  0  0  0  0  0  0  0
   -3.2329   -1.0010    0.2534 O   0  0  0  0  0  0  0  0  0  0  0  0
   -0.9940   -0.8979    1.9662 C   0  0  1  0  0  0  0  0  0  0  0  0
   -0.9292   -2.4264    1.9681 C   0  0  2  0  0  0  0  0  0  0  0  0
   -1.2108    1.6029    1.4490 H   0  0  0  0  0  0  0  0  0  0  0  0
   -0.0524   -0.6582    0.0191 H   0  0  0  0  0  0  0  0  0  0  0  0
   -0.1834   -0.4874    2.5709 H   0  0  0  0  0  0  0  0  0  0  0  0
   -1.7786   -2.8065    1.3985 H   0  0  0  0  0  0  0  0  0  0  0  0
   -1.0450   -2.7649    3.0003 H   0  0  0  0  0  0  0  0  0  0  0  0
   -2.0127   -0.4430   -1.5707 N   0  0  0  0  0  0  0  0  0  0  0  0
   -1.1468   -0.0164   -1.8844 H   0  0  0  0  0  0  0  0  0  0  0  0
   -3.0775   -0.6048   -2.5301 C   0  0  2  0  0  0  0  0  0  0  0  0
   -3.3462    0.3534   -2.9797 H   0  0  0  0  0  0  0  0  0  0  0  0
   -3.9406   -1.0116   -2.0051 H   0  0  0  0  0  0  0  0  0  0  0  0
   -2.7723   -1.2939   -3.3189 H   0  0  0  0  0  0  0  0  0  0  0  0
   -0.2320    1.8863   -0.3284 C   0  0  0  0  0  0  0  0  0  0  0  0
    0.1810    1.3861   -1.3605 O   0  0  0  0  0  0  0  0  0  0  0  0
   -0.1606    3.3659   -0.0312 C   0  0  2  0  0  0  0  0  0  0  0  0
    0.3570    3.8698   -0.8420 H   0  0  0  0  0  0  0  0  0  0  0  0
    0.3724    3.5388    0.9008 H   0  0  0  0  0  0  0  0  0  0  0  0
   -1.1655    3.7736    0.0593 H   0  0  0  0  0  0  0  0  0  0  0  0
   -1.9462   -0.6034    2.4140 H   0  0  0  0  0  0  0  0  0  0  0  0
    0.3581   -3.0252    1.4009 C   0  0  2  0  0  0  0  0  0  0  0  0
    0.4576   -2.7778    0.3411 H   0  0  0  0  0  0  0  0  0  0  0  0
    0.2809   -4.1147    1.4712 H   0  0  0  0  0  0  0  0  0  0  0  0
    1.6244   -2.5804    2.1480 C   0  0  2  0  0  0  0  0  0  0  0  0
    1.4915   -2.7483    3.2207 H   0  0  0  0  0  0  0  0  0  0  0  0
    1.8001   -1.5137    1.9887 H   0  0  0  0  0  0  0  0  0  0  0  0
    2.8361   -3.2725    1.7462 N   0  0  0  0  0  0  0  0  0  0  0  0
    2.7337   -4.2718    1.8925 H   0  0  0  0  0  0  0  0  0  0  0  0
    3.0103   -3.1259    0.7571 H   0  0  0  0  0  0  0  0  0  0  0  0
  1  7  1  0
  1  2  1  0
  1 18  1  0
  2  5  1  0
  2  3  1  0
  2  8  1  6
  3  4  1  0
  3 12  1  0
  5 24  1  1
  5  9  1  0
  5  6  1  0
  6 25  1  0
  6 11  1  1
  6 10  1  0
 12 14  1  0
 12 13  1  0
 14 15  1  6
 14 16  1  0
 14 17  1  0
 18 20  1  0
 18 19  1  0
 20 22  1  1
 20 23  1  0
 20 21  1  0
 25 26  1  6
 25 27  1  0
 25 28  1  0
 28 31  1  0
 28 30  1  1
 28 29  1  0
 31 33  1  0
 31 32  1  0
M  END
$$$$
