 energy: -74.403600073749 gnorm: 0.000030929534 xtb: 6.5.1 (9af7eec)
     RDKit          3D

 37 39  0  0  0  0  0  0  0  0999 V2000
    0.6983    2.6225   -1.2483 C   0  0  0  0  0  0  0  0  0  0  0  0
    1.2843    2.8997   -2.3674 N   0  0  0  0  0  0  0  0  0  0  0  0
    1.6589    1.6945   -2.8975 C   0  0  0  0  0  0  0  0  0  0  0  0
    1.2538    0.6751   -2.0372 C   0  0  0  0  0  0  0  0  0  0  0  0
    0.6450    1.2740   -0.9774 N   0  0  0  0  0  0  0  0  0  0  0  0
    0.0927    0.5456    0.1434 C   0  0  2  0  0  0  0  0  0  0  0  0
   -0.3021    1.4343    1.3221 C   0  0  2  0  0  0  0  0  0  0  0  0
    0.0341    0.5544    2.5397 C   0  0  2  0  0  0  0  0  0  0  0  0
    1.2792   -0.2077    2.0136 C   0  0  2  0  0  0  0  0  0  0  0  0
    1.0781   -0.3566    0.6191 O   0  0  0  0  0  0  0  0  0  0  0  0
    1.4595   -1.6027    2.6512 C   0  0  2  0  0  0  0  0  0  0  0  0
    1.5281   -2.6285    1.6963 O   0  0  0  0  0  0  0  0  0  0  0  0
    0.3094   -2.8787    0.6722 P   0  0  1  0  0  5  0  0  0  0  0  0
   -0.9557   -2.1927    1.0059 O   0  0  0  0  0  0  0  0  0  0  0  0
    0.8876   -2.7879   -0.7752 O   0  0  0  0  0  0  0  0  0  0  0  0
    0.1658   -4.4630    0.7511 O   0  0  0  0  0  0  0  0  0  0  0  0
   -1.0105   -0.2683    2.9316 O   0  0  0  0  0  0  0  0  0  0  0  0
    1.4258   -0.6515   -2.2161 N   0  0  0  0  0  0  0  0  0  0  0  0
    2.0498   -0.9753   -3.3203 C   0  0  0  0  0  0  0  0  0  0  0  0
    2.4930   -0.0501   -4.2118 N   0  0  0  0  0  0  0  0  0  0  0  0
    2.3474    1.3642   -4.1120 C   0  0  0  0  0  0  0  0  0  0  0  0
    2.7911    2.0550   -4.9946 O   0  0  0  0  0  0  0  0  0  0  0  0
    2.2272   -2.2822   -3.5929 N   0  0  0  0  0  0  0  0  0  0  0  0
    0.2701    3.3637   -0.6055 H   0  0  0  0  0  0  0  0  0  0  0  0
   -0.7559   -0.0533   -0.2231 H   0  0  0  0  0  0  0  0  0  0  0  0
   -1.3542    1.7063    1.3055 H   0  0  0  0  0  0  0  0  0  0  0  0
    0.3149    2.3315    1.3458 H   0  0  0  0  0  0  0  0  0  0  0  0
    0.2871    1.1596    3.4152 H   0  0  0  0  0  0  0  0  0  0  0  0
    2.1805    0.4006    2.1761 H   0  0  0  0  0  0  0  0  0  0  0  0
    0.6262   -1.7818    3.3406 H   0  0  0  0  0  0  0  0  0  0  0  0
    2.4010   -1.6512    3.2025 H   0  0  0  0  0  0  0  0  0  0  0  0
    1.0396   -1.8785   -1.1546 H   0  0  0  0  0  0  0  0  0  0  0  0
   -0.6006   -4.6956    1.2722 H   0  0  0  0  0  0  0  0  0  0  0  0
   -1.1703   -0.9373    2.2293 H   0  0  0  0  0  0  0  0  0  0  0  0
    2.9634   -0.3580   -5.0548 H   0  0  0  0  0  0  0  0  0  0  0  0
    2.8246   -2.5814   -4.3416 H   0  0  0  0  0  0  0  0  0  0  0  0
    1.9599   -2.9399   -2.8781 H   0  0  0  0  0  0  0  0  0  0  0  0
  1  2  2  0
  2  3  1  0
  3  4  2  0
  4  5  1  0
  5  6  1  0
  6  7  1  0
  7  8  1  0
  8  9  1  0
  9 10  1  0
  9 11  1  0
 11 12  1  0
 13 12  1  1
 13 14  2  0
 13 15  1  0
 13 16  1  0
  8 17  1  0
  4 18  1  0
 18 19  2  0
 19 20  1  0
 20 21  1  0
 21 22  2  0
 19 23  1  0
  5  1  1  0
 21  3  1  0
 10  6  1  0
  1 24  1  0
  6 25  1  6
  7 26  1  6
  7 27  1  0
  8 28  1  1
  9 29  1  6
 11 30  1  1
 11 31  1  0
 15 32  1  0
 16 33  1  0
 17 34  1  0
 20 35  1  0
 23 36  1  0
 23 37  1  0
M  END
$$$$
