 energy: -74.398196244095 gnorm: 0.000039403264 xtb: 6.5.1 (9af7eec)
     RDKit          3D

 37 39  0  0  0  0  0  0  0  0999 V2000
   -2.5978   -6.9063    9.7443 C   0  0  0  0  0  0  0  0  0  0  0  0
   -3.2748   -6.8035   10.8385 N   0  0  0  0  0  0  0  0  0  0  0  0
   -4.4361   -6.1752   10.4864 C   0  0  0  0  0  0  0  0  0  0  0  0
   -4.4341   -5.9041    9.1139 C   0  0  0  0  0  0  0  0  0  0  0  0
   -3.2384   -6.3711    8.6481 N   0  0  0  0  0  0  0  0  0  0  0  0
   -2.6529   -6.3565    7.3160 C   0  0  2  0  0  0  0  0  0  0  0  0
   -1.3371   -5.5350    7.3065 C   0  0  2  0  0  0  0  0  0  0  0  0
   -1.6317   -4.3869    6.3208 C   0  0  2  0  0  0  0  0  0  0  0  0
   -3.1751   -4.3840    6.3121 C   0  0  2  0  0  0  0  0  0  0  0  0
   -3.4982   -5.7678    6.3846 O   0  0  0  0  0  0  0  0  0  0  0  0
   -3.8258   -3.7682    5.0776 C   0  0  2  0  0  0  0  0  0  0  0  0
   -5.0962   -3.2440    5.4044 O   0  0  0  0  0  0  0  0  0  0  0  0
   -6.4107   -4.1354    5.2554 P   0  0  1  0  0  5  0  0  0  0  0  0
   -7.5585   -3.4808    5.8984 O   0  0  0  0  0  0  0  0  0  0  0  0
   -6.5599   -4.3324    3.6828 O   0  0  0  0  0  0  0  0  0  0  0  0
   -6.0991   -5.5945    5.7494 O   0  0  0  0  0  0  0  0  0  0  0  0
   -1.0938   -4.6109    5.0486 O   0  0  0  0  0  0  0  0  0  0  0  0
   -5.4260   -5.2992    8.4123 N   0  0  0  0  0  0  0  0  0  0  0  0
   -6.4562   -4.9249    9.1428 C   0  0  0  0  0  0  0  0  0  0  0  0
   -6.5193   -5.1410   10.4890 N   0  0  0  0  0  0  0  0  0  0  0  0
   -5.5540   -5.7894   11.2960 C   0  0  0  0  0  0  0  0  0  0  0  0
   -5.7667   -5.9232   12.4762 O   0  0  0  0  0  0  0  0  0  0  0  0
   -7.5063   -4.3263    8.5724 N   0  0  0  0  0  0  0  0  0  0  0  0
   -1.6310   -7.3612    9.6646 H   0  0  0  0  0  0  0  0  0  0  0  0
   -2.5022   -7.4021    7.0126 H   0  0  0  0  0  0  0  0  0  0  0  0
   -0.4905   -6.1260    6.9626 H   0  0  0  0  0  0  0  0  0  0  0  0
   -1.1192   -5.1502    8.3010 H   0  0  0  0  0  0  0  0  0  0  0  0
   -1.2162   -3.4341    6.6510 H   0  0  0  0  0  0  0  0  0  0  0  0
   -3.5544   -3.8611    7.2017 H   0  0  0  0  0  0  0  0  0  0  0  0
   -3.9147   -4.5234    4.2940 H   0  0  0  0  0  0  0  0  0  0  0  0
   -3.2223   -2.9303    4.7196 H   0  0  0  0  0  0  0  0  0  0  0  0
   -7.4861   -4.3428    3.4485 H   0  0  0  0  0  0  0  0  0  0  0  0
   -5.7795   -5.6124    6.6875 H   0  0  0  0  0  0  0  0  0  0  0  0
   -1.4900   -5.4109    4.6806 H   0  0  0  0  0  0  0  0  0  0  0  0
   -7.3441   -4.8351   10.9921 H   0  0  0  0  0  0  0  0  0  0  0  0
   -8.2502   -3.9815    9.1523 H   0  0  0  0  0  0  0  0  0  0  0  0
   -7.4940   -4.0258    7.5969 H   0  0  0  0  0  0  0  0  0  0  0  0
  1  2  2  0
  2  3  1  0
  3  4  2  0
  4  5  1  0
  5  6  1  0
  6  7  1  0
  7  8  1  0
  8  9  1  0
  9 10  1  0
  9 11  1  0
 11 12  1  0
 13 12  1  6
 13 14  2  0
 13 15  1  0
 13 16  1  0
  8 17  1  0
  4 18  1  0
 18 19  2  0
 19 20  1  0
 20 21  1  0
 21 22  2  0
 19 23  1  0
  5  1  1  0
 21  3  1  0
 10  6  1  0
  1 24  1  0
  6 25  1  6
  7 26  1  6
  7 27  1  0
  8 28  1  1
  9 29  1  1
 11 30  1  6
 11 31  1  0
 15 32  1  0
 16 33  1  0
 17 34  1  0
 20 35  1  0
 23 36  1  0
 23 37  1  0
M  END
$$$$
