 energy: -74.390306903504 gnorm: 0.000033699334 xtb: 6.5.1 (9af7eec)
     RDKit          3D

 37 39  0  0  0  0  0  0  0  0999 V2000
   -9.0463    2.3674   -5.7398 C   0  0  0  0  0  0  0  0  0  0  0  0
   -9.6135    1.6781   -6.6747 N   0  0  0  0  0  0  0  0  0  0  0  0
  -10.3374    0.7093   -6.0333 C   0  0  0  0  0  0  0  0  0  0  0  0
  -10.1828    0.8596   -4.6558 C   0  0  0  0  0  0  0  0  0  0  0  0
   -9.3409    1.9163   -4.4722 N   0  0  0  0  0  0  0  0  0  0  0  0
   -8.9439    2.4167   -3.1684 C   0  0  2  0  0  0  0  0  0  0  0  0
   -7.6293    3.2167   -3.2028 C   0  0  2  0  0  0  0  0  0  0  0  0
   -6.8102    2.5805   -2.0626 C   0  0  2  0  0  0  0  0  0  0  0  0
   -7.3478    1.1340   -2.1086 C   0  0  2  0  0  0  0  0  0  0  0  0
   -8.7384    1.3302   -2.3014 O   0  0  0  0  0  0  0  0  0  0  0  0
   -7.1380    0.3306   -0.8164 C   0  0  2  0  0  0  0  0  0  0  0  0
   -8.2395   -0.4892   -0.5250 O   0  0  0  0  0  0  0  0  0  0  0  0
   -9.6214    0.0606    0.0895 P   0  0  1  0  0  5  0  0  0  0  0  0
   -9.9904   -0.5734    1.3479 O   0  0  0  0  0  0  0  0  0  0  0  0
   -9.3975    1.6591    0.2740 O   0  0  0  0  0  0  0  0  0  0  0  0
  -10.7095   -0.1476   -1.0210 O   0  0  0  0  0  0  0  0  0  0  0  0
   -7.0519    3.1886   -0.8309 O   0  0  0  0  0  0  0  0  0  0  0  0
  -10.7549    0.1125   -3.6885 N   0  0  0  0  0  0  0  0  0  0  0  0
  -11.5203   -0.8536   -4.1317 C   0  0  0  0  0  0  0  0  0  0  0  0
  -11.7165   -1.0867   -5.4578 N   0  0  0  0  0  0  0  0  0  0  0  0
  -11.1677   -0.3449   -6.5412 C   0  0  0  0  0  0  0  0  0  0  0  0
  -11.4451   -0.6706   -7.6686 O   0  0  0  0  0  0  0  0  0  0  0  0
  -12.1632   -1.6237   -3.2355 N   0  0  0  0  0  0  0  0  0  0  0  0
   -8.4259    3.2208   -5.9229 H   0  0  0  0  0  0  0  0  0  0  0  0
   -9.7845    2.9984   -2.7601 H   0  0  0  0  0  0  0  0  0  0  0  0
   -7.7856    4.2790   -3.0313 H   0  0  0  0  0  0  0  0  0  0  0  0
   -7.1123    3.0723   -4.1492 H   0  0  0  0  0  0  0  0  0  0  0  0
   -5.7345    2.6437   -2.2355 H   0  0  0  0  0  0  0  0  0  0  0  0
   -6.9270    0.5971   -2.9716 H   0  0  0  0  0  0  0  0  0  0  0  0
   -6.9455    1.0195    0.0124 H   0  0  0  0  0  0  0  0  0  0  0  0
   -6.2817   -0.3389   -0.9286 H   0  0  0  0  0  0  0  0  0  0  0  0
   -9.7275    1.8585    1.1502 H   0  0  0  0  0  0  0  0  0  0  0  0
  -10.5127    0.1508   -1.9452 H   0  0  0  0  0  0  0  0  0  0  0  0
   -7.9485    2.9517   -0.5427 H   0  0  0  0  0  0  0  0  0  0  0  0
  -12.3256   -1.8448   -5.7425 H   0  0  0  0  0  0  0  0  0  0  0  0
  -12.6391   -2.4612   -3.5175 H   0  0  0  0  0  0  0  0  0  0  0  0
  -11.9370   -1.4851   -2.2621 H   0  0  0  0  0  0  0  0  0  0  0  0
  1  2  2  0
  2  3  1  0
  3  4  2  0
  4  5  1  0
  5  6  1  0
  6  7  1  0
  7  8  1  0
  8  9  1  0
  9 10  1  0
  9 11  1  0
 11 12  1  0
 13 12  1  6
 13 14  2  0
 13 15  1  0
 13 16  1  0
  8 17  1  0
  4 18  1  0
 18 19  2  0
 19 20  1  0
 20 21  1  0
 21 22  2  0
 19 23  1  0
  5  1  1  0
 21  3  1  0
 10  6  1  0
  1 24  1  0
  6 25  1  1
  7 26  1  1
  7 27  1  0
  8 28  1  6
  9 29  1  6
 11 30  1  1
 11 31  1  0
 15 32  1  0
 16 33  1  0
 17 34  1  0
 20 35  1  0
 23 36  1  0
 23 37  1  0
M  END
$$$$
