 energy: -74.395952270799 gnorm: 0.000030379139 xtb: 6.5.1 (9af7eec)
     RDKit          3D

 37 39  0  0  0  0  0  0  0  0999 V2000
    2.6283    2.0943    4.1740 C   0  0  0  0  0  0  0  0  0  0  0  0
    3.3880    3.1297    4.0343 N   0  0  0  0  0  0  0  0  0  0  0  0
    3.4645    3.3477    2.6847 C   0  0  0  0  0  0  0  0  0  0  0  0
    2.7115    2.3823    2.0148 C   0  0  0  0  0  0  0  0  0  0  0  0
    2.1852    1.5733    2.9801 N   0  0  0  0  0  0  0  0  0  0  0  0
    1.2676    0.4812    2.8043 C   0  0  2  0  0  0  0  0  0  0  0  0
    1.7268   -0.5214    1.7417 C   0  0  2  0  0  0  0  0  0  0  0  0
    0.4290   -0.8950    1.0094 C   0  0  2  0  0  0  0  0  0  0  0  0
   -0.3921    0.4153    1.1517 C   0  0  2  0  0  0  0  0  0  0  0  0
    0.0135    0.9972    2.3786 O   0  0  0  0  0  0  0  0  0  0  0  0
   -1.9175    0.1791    1.1984 C   0  0  2  0  0  0  0  0  0  0  0  0
   -2.5084    0.6893    2.3690 O   0  0  0  0  0  0  0  0  0  0  0  0
   -2.0004    0.2297    3.8224 P   0  0  1  0  0  5  0  0  0  0  0  0
   -1.1808   -0.9949    3.8787 O   0  0  0  0  0  0  0  0  0  0  0  0
   -1.4875    1.5286    4.5599 O   0  0  0  0  0  0  0  0  0  0  0  0
   -3.3715    0.0636    4.6006 O   0  0  0  0  0  0  0  0  0  0  0  0
   -0.2004   -2.0147    1.5363 O   0  0  0  0  0  0  0  0  0  0  0  0
    2.5383    2.2705    0.6773 N   0  0  0  0  0  0  0  0  0  0  0  0
    3.1656    3.1826   -0.0120 C   0  0  0  0  0  0  0  0  0  0  0  0
    3.9183    4.1670    0.5498 N   0  0  0  0  0  0  0  0  0  0  0  0
    4.1579    4.3566    1.9375 C   0  0  0  0  0  0  0  0  0  0  0  0
    4.8578    5.2746    2.2878 O   0  0  0  0  0  0  0  0  0  0  0  0
    3.1126    3.1273   -1.3666 N   0  0  0  0  0  0  0  0  0  0  0  0
    2.3597    1.6564    5.1145 H   0  0  0  0  0  0  0  0  0  0  0  0
    1.1231    0.0135    3.7877 H   0  0  0  0  0  0  0  0  0  0  0  0
    2.1970   -1.3974    2.1812 H   0  0  0  0  0  0  0  0  0  0  0  0
    2.4139   -0.0294    1.0553 H   0  0  0  0  0  0  0  0  0  0  0  0
    0.6112   -1.1228   -0.0445 H   0  0  0  0  0  0  0  0  0  0  0  0
   -0.1287    1.1044    0.3383 H   0  0  0  0  0  0  0  0  0  0  0  0
   -2.1074   -0.8973    1.1197 H   0  0  0  0  0  0  0  0  0  0  0  0
   -2.4135    0.6963    0.3746 H   0  0  0  0  0  0  0  0  0  0  0  0
   -0.8516    2.0241    4.0450 H   0  0  0  0  0  0  0  0  0  0  0  0
   -3.5267   -0.8564    4.8076 H   0  0  0  0  0  0  0  0  0  0  0  0
   -0.4749   -1.8173    2.4571 H   0  0  0  0  0  0  0  0  0  0  0  0
    4.3923    4.8327   -0.0492 H   0  0  0  0  0  0  0  0  0  0  0  0
    3.3604    3.9364   -1.9085 H   0  0  0  0  0  0  0  0  0  0  0  0
    2.4442    2.4885   -1.7608 H   0  0  0  0  0  0  0  0  0  0  0  0
  1  2  2  0
  2  3  1  0
  3  4  2  0
  4  5  1  0
  5  6  1  0
  6  7  1  0
  7  8  1  0
  8  9  1  0
  9 10  1  0
  9 11  1  0
 11 12  1  0
 13 12  1  6
 13 14  2  0
 13 15  1  0
 13 16  1  0
  8 17  1  0
  4 18  1  0
 18 19  2  0
 19 20  1  0
 20 21  1  0
 21 22  2  0
 19 23  1  0
  5  1  1  0
 21  3  1  0
 10  6  1  0
  1 24  1  0
  6 25  1  1
  7 26  1  1
  7 27  1  0
  8 28  1  6
  9 29  1  6
 11 30  1  6
 11 31  1  0
 15 32  1  0
 16 33  1  0
 17 34  1  0
 20 35  1  0
 23 36  1  0
 23 37  1  0
M  END
$$$$
