-51.92338999
     RDKit          3D

 33 33  0  0  1  0  0  0  0  0999 V2000
   -2.4761   -1.2083    0.4365 N   0  0  0  0  0  0  0  0  0  0  0  0
   -1.2155   -0.5153    0.3636 C   0  0  2  0  0  0  0  0  0  0  0  0
   -1.0698    0.2301   -0.9761 C   0  0  0  0  0  0  0  0  0  0  0  0
   -1.5443   -0.1918   -2.0066 O   0  0  0  0  0  0  0  0  0  0  0  0
   -0.0600   -1.5312    0.4740 C   0  0  1  0  0  0  0  0  0  0  0  0
    1.2688   -0.8323    0.4237 C   0  0  0  0  0  0  0  0  0  0  0  0
    1.7766   -0.1943    1.5509 C   0  0  0  0  0  0  0  0  0  0  0  0
    1.9893   -0.7598   -0.7606 C   0  0  0  0  0  0  0  0  0  0  0  0
    2.9691    0.4987    1.5012 C   0  0  0  0  0  0  0  0  0  0  0  0
    3.1862   -0.0699   -0.8223 C   0  0  0  0  0  0  0  0  0  0  0  0
    3.6841    0.5663    0.3087 C   0  0  0  0  0  0  0  0  0  0  0  0
    4.8511    1.2621    0.2968 O   0  0  0  0  0  0  0  0  0  0  0  0
   -2.5175   -2.0993   -0.0403 H   0  0  0  0  0  0  0  0  0  0  0  0
   -1.1488    0.1957    1.1931 H   0  0  0  0  0  0  0  0  0  0  0  0
   -0.1699   -2.0778    1.4128 H   0  0  0  0  0  0  0  0  0  0  0  0
   -0.1424   -2.2375   -0.3540 H   0  0  0  0  0  0  0  0  0  0  0  0
    1.2333   -0.2471    2.4835 H   0  0  0  0  0  0  0  0  0  0  0  0
    1.6099   -1.2451   -1.6475 H   0  0  0  0  0  0  0  0  0  0  0  0
    3.3685    0.9907    2.3735 H   0  0  0  0  0  0  0  0  0  0  0  0
    3.7394   -0.0264   -1.7513 H   0  0  0  0  0  0  0  0  0  0  0  0
    5.2599    1.2078   -0.5755 H   0  0  0  0  0  0  0  0  0  0  0  0
   -0.3706    1.3828   -0.8878 N   0  0  0  0  0  0  0  0  0  0  0  0
    0.0805    1.6242   -0.0195 H   0  0  0  0  0  0  0  0  0  0  0  0
   -0.0074    2.1523   -2.0540 C   0  0  1  0  0  0  0  0  0  0  0  0
   -0.2998    3.1951   -1.9265 H   0  0  0  0  0  0  0  0  0  0  0  0
    1.0683    2.0989   -2.2345 H   0  0  0  0  0  0  0  0  0  0  0  0
   -0.5382    1.7266   -2.9037 H   0  0  0  0  0  0  0  0  0  0  0  0
   -3.6920   -0.6765    0.7288 C   0  0  0  0  0  0  0  0  0  0  0  0
   -4.6991   -1.3418    0.6272 O   0  0  0  0  0  0  0  0  0  0  0  0
   -3.6924    0.7528    1.2262 C   0  0  2  0  0  0  0  0  0  0  0  0
   -4.7190    1.0507    1.4186 H   0  0  0  0  0  0  0  0  0  0  0  0
   -3.2608    1.4094    0.4738 H   0  0  0  0  0  0  0  0  0  0  0  0
   -3.1196    0.8376    2.1474 H   0  0  0  0  0  0  0  0  0  0  0  0
  1 28  1  0
  2  1  1  0
  2  5  1  0
  2 14  1  1
  3 22  1  0
  3  2  1  0
  4  3  2  0
  5 15  1  1
  6  5  1  0
  6  7  2  0
  7 17  1  0
  8  6  1  0
  9  7  1  0
  9 19  1  0
 10  8  2  0
 10 11  1  0
 11  9  2  0
 12 11  1  0
 13  1  1  0
 16  5  1  0
 18  8  1  0
 20 10  1  0
 21 12  1  0
 22 23  1  0
 24 25  1  1
 24 22  1  0
 26 24  1  0
 27 24  1  0
 28 30  1  0
 29 28  2  0
 30 31  1  1
 30 33  1  0
 32 30  1  0
M  END
$$$$
