-51.92644661
     RDKit          3D

 33 33  0  0  1  0  0  0  0  0999 V2000
   -1.2827    0.1520   -0.8910 N   0  0  0  0  0  0  0  0  0  0  0  0
   -1.0193    0.8451    0.3462 C   0  0  2  0  0  0  0  0  0  0  0  0
   -2.0848    1.9208    0.6347 C   0  0  0  0  0  0  0  0  0  0  0  0
   -1.8676    2.8570    1.3727 O   0  0  0  0  0  0  0  0  0  0  0  0
    0.3846    1.4838    0.3449 C   0  0  1  0  0  0  0  0  0  0  0  0
    1.4312    0.4103    0.2945 C   0  0  0  0  0  0  0  0  0  0  0  0
    1.9153   -0.0558   -0.9199 C   0  0  0  0  0  0  0  0  0  0  0  0
    1.8737   -0.1985    1.4645 C   0  0  0  0  0  0  0  0  0  0  0  0
    2.8138   -1.1057   -0.9703 C   0  0  0  0  0  0  0  0  0  0  0  0
    2.7723   -1.2450    1.4271 C   0  0  0  0  0  0  0  0  0  0  0  0
    3.2449   -1.7110    0.2032 C   0  0  0  0  0  0  0  0  0  0  0  0
    4.1206   -2.7513    0.2043 O   0  0  0  0  0  0  0  0  0  0  0  0
   -1.2509    0.7335   -1.7205 H   0  0  0  0  0  0  0  0  0  0  0  0
   -1.0725    0.1283    1.1712 H   0  0  0  0  0  0  0  0  0  0  0  0
    0.4691    2.1460   -0.5190 H   0  0  0  0  0  0  0  0  0  0  0  0
    0.4763    2.0857    1.2491 H   0  0  0  0  0  0  0  0  0  0  0  0
    1.5906    0.4023   -1.8425 H   0  0  0  0  0  0  0  0  0  0  0  0
    1.5081    0.1550    2.4179 H   0  0  0  0  0  0  0  0  0  0  0  0
    3.1779   -1.4606   -1.9251 H   0  0  0  0  0  0  0  0  0  0  0  0
    3.1198   -1.7182    2.3316 H   0  0  0  0  0  0  0  0  0  0  0  0
    4.3626   -2.9761   -0.7022 H   0  0  0  0  0  0  0  0  0  0  0  0
   -3.2633    1.7042    0.0226 N   0  0  0  0  0  0  0  0  0  0  0  0
   -3.3645    0.8921   -0.5678 H   0  0  0  0  0  0  0  0  0  0  0  0
   -4.3984    2.5796    0.1814 C   0  0  1  0  0  0  0  0  0  0  0  0
   -4.7060    2.9896   -0.7820 H   0  0  0  0  0  0  0  0  0  0  0  0
   -5.2387    2.0450    0.6276 H   0  0  0  0  0  0  0  0  0  0  0  0
   -4.0953    3.3913    0.8408 H   0  0  0  0  0  0  0  0  0  0  0  0
   -1.1928   -1.1793   -1.1620 C   0  0  0  0  0  0  0  0  0  0  0  0
   -1.2511   -1.5661   -2.3099 O   0  0  0  0  0  0  0  0  0  0  0  0
   -1.0862   -2.1123    0.0200 C   0  0  2  0  0  0  0  0  0  0  0  0
   -1.1298   -3.1338   -0.3468 H   0  0  0  0  0  0  0  0  0  0  0  0
   -1.9035   -1.9480    0.7188 H   0  0  0  0  0  0  0  0  0  0  0  0
   -0.1387   -1.9602    0.5325 H   0  0  0  0  0  0  0  0  0  0  0  0
  1  2  1  0
  2  3  1  0
  2 14  1  1
  3  4  2  0
  5  2  1  0
  5 16  1  1
  6  5  1  0
  6  8  2  0
  7  6  1  0
  8 18  1  0
  9  7  2  0
  9 11  1  0
 10  8  1  0
 10 20  1  0
 11 12  1  0
 11 10  2  0
 13  1  1  0
 15  5  1  0
 17  7  1  0
 19  9  1  0
 21 12  1  0
 22 24  1  0
 22  3  1  0
 23 22  1  0
 24 26  1  1
 24 27  1  0
 25 24  1  0
 28  1  1  0
 28 30  1  0
 29 28  2  0
 30 33  1  1
 30 32  1  0
 31 30  1  0
M  END
$$$$
