-51.92157160
     RDKit          3D

 33 33  0  0  1  0  0  0  0  0999 V2000
   -2.4838   -0.5926   -0.3366 N   0  0  0  0  0  0  0  0  0  0  0  0
   -1.1328   -0.0833   -0.2412 C   0  0  2  0  0  0  0  0  0  0  0  0
   -1.1084    1.2603   -0.9955 C   0  0  0  0  0  0  0  0  0  0  0  0
   -0.5778    1.4125   -2.0726 O   0  0  0  0  0  0  0  0  0  0  0  0
   -0.0970   -1.0616   -0.8303 C   0  0  1  0  0  0  0  0  0  0  0  0
    1.2714   -0.7736   -0.2808 C   0  0  0  0  0  0  0  0  0  0  0  0
    1.7079   -1.3865    0.8853 C   0  0  0  0  0  0  0  0  0  0  0  0
    2.1091    0.1443   -0.9044 C   0  0  0  0  0  0  0  0  0  0  0  0
    2.9515   -1.0987    1.4180 C   0  0  0  0  0  0  0  0  0  0  0  0
    3.3507    0.4410   -0.3809 C   0  0  0  0  0  0  0  0  0  0  0  0
    3.7815   -0.1809    0.7872 C   0  0  0  0  0  0  0  0  0  0  0  0
    5.0125    0.1369    1.2737 O   0  0  0  0  0  0  0  0  0  0  0  0
   -2.8949   -0.5752   -1.2613 H   0  0  0  0  0  0  0  0  0  0  0  0
   -0.8967    0.1031    0.8108 H   0  0  0  0  0  0  0  0  0  0  0  0
   -0.3985   -2.0806   -0.5803 H   0  0  0  0  0  0  0  0  0  0  0  0
   -0.0975   -0.9481   -1.9152 H   0  0  0  0  0  0  0  0  0  0  0  0
    1.0761   -2.1082    1.3845 H   0  0  0  0  0  0  0  0  0  0  0  0
    1.7758    0.6326   -1.8070 H   0  0  0  0  0  0  0  0  0  0  0  0
    3.2809   -1.5895    2.3249 H   0  0  0  0  0  0  0  0  0  0  0  0
    4.0055    1.1499   -0.8617 H   0  0  0  0  0  0  0  0  0  0  0  0
    5.1899   -0.3725    2.0735 H   0  0  0  0  0  0  0  0  0  0  0  0
   -1.7737    2.2355   -0.3459 N   0  0  0  0  0  0  0  0  0  0  0  0
   -2.2428    2.0256    0.5206 H   0  0  0  0  0  0  0  0  0  0  0  0
   -1.9458    3.5596   -0.8937 C   0  0  1  0  0  0  0  0  0  0  0  0
   -1.5383    4.3099   -0.2146 H   0  0  0  0  0  0  0  0  0  0  0  0
   -1.4054    3.5945   -1.8379 H   0  0  0  0  0  0  0  0  0  0  0  0
   -3.0015    3.7717   -1.0722 H   0  0  0  0  0  0  0  0  0  0  0  0
   -3.1932   -1.2997    0.5804 C   0  0  0  0  0  0  0  0  0  0  0  0
   -4.2875   -1.7405    0.3027 O   0  0  0  0  0  0  0  0  0  0  0  0
   -2.5585   -1.4661    1.9433 C   0  0  2  0  0  0  0  0  0  0  0  0
   -1.5936   -1.9594    1.8576 H   0  0  0  0  0  0  0  0  0  0  0  0
   -3.2191   -2.0729    2.5559 H   0  0  0  0  0  0  0  0  0  0  0  0
   -2.4200   -0.5002    2.4246 H   0  0  0  0  0  0  0  0  0  0  0  0
  1  2  1  0
  1 28  1  0
  2 14  1  1
  3 22  1  0
  3  2  1  0
  4  3  2  0
  5 15  1  6
  5  6  1  0
  5  2  1  0
  6  7  2  0
  7 17  1  0
  7  9  1  0
  8 10  2  0
  8  6  1  0
  9 19  1  0
 10 11  1  0
 11 12  1  0
 11  9  2  0
 12 21  1  0
 13  1  1  0
 16  5  1  0
 18  8  1  0
 20 10  1  0
 22 23  1  0
 24 22  1  0
 24 25  1  1
 26 24  1  0
 27 24  1  0
 28 30  1  0
 29 28  2  0
 30 33  1  1
 30 32  1  0
 31 30  1  0
M  END
$$$$
