-51.92085599
     RDKit          3D

 33 33  0  0  1  0  0  0  0  0999 V2000
   -2.0890   -0.5334    0.9381 N   0  0  0  0  0  0  0  0  0  0  0  0
   -0.9311    0.0791    0.3188 C   0  0  2  0  0  0  0  0  0  0  0  0
   -1.3326    1.2856   -0.5576 C   0  0  0  0  0  0  0  0  0  0  0  0
   -0.7909    1.5464   -1.6098 O   0  0  0  0  0  0  0  0  0  0  0  0
   -0.0505   -0.9199   -0.4666 C   0  0  1  0  0  0  0  0  0  0  0  0
    1.4048   -0.7286   -0.1427 C   0  0  0  0  0  0  0  0  0  0  0  0
    2.0602   -1.5778    0.7363 C   0  0  0  0  0  0  0  0  0  0  0  0
    2.1104    0.3343   -0.6976 C   0  0  0  0  0  0  0  0  0  0  0  0
    3.3927   -1.3800    1.0527 C   0  0  0  0  0  0  0  0  0  0  0  0
    3.4379    0.5423   -0.3868 C   0  0  0  0  0  0  0  0  0  0  0  0
    4.0900   -0.3177    0.4927 C   0  0  0  0  0  0  0  0  0  0  0  0
    5.4010   -0.0823    0.7749 O   0  0  0  0  0  0  0  0  0  0  0  0
   -2.0653   -0.6555    1.9411 H   0  0  0  0  0  0  0  0  0  0  0  0
   -0.3281    0.5004    1.1327 H   0  0  0  0  0  0  0  0  0  0  0  0
   -0.3571   -1.9342   -0.2078 H   0  0  0  0  0  0  0  0  0  0  0  0
   -0.2062   -0.7602   -1.5346 H   0  0  0  0  0  0  0  0  0  0  0  0
    1.5303   -2.4098    1.1783 H   0  0  0  0  0  0  0  0  0  0  0  0
    1.6036    1.0003   -1.3791 H   0  0  0  0  0  0  0  0  0  0  0  0
    3.8941   -2.0536    1.7358 H   0  0  0  0  0  0  0  0  0  0  0  0
    3.9917    1.3621   -0.8154 H   0  0  0  0  0  0  0  0  0  0  0  0
    5.7301   -0.7547    1.3833 H   0  0  0  0  0  0  0  0  0  0  0  0
   -2.3073    2.0369   -0.0116 N   0  0  0  0  0  0  0  0  0  0  0  0
   -2.7513    1.7226    0.8374 H   0  0  0  0  0  0  0  0  0  0  0  0
   -2.8503    3.2043   -0.6626 C   0  0  1  0  0  0  0  0  0  0  0  0
   -3.8994    3.0508   -0.9227 H   0  0  0  0  0  0  0  0  0  0  0  0
   -2.7660    4.0763   -0.0127 H   0  0  0  0  0  0  0  0  0  0  0  0
   -2.2732    3.3721   -1.5704 H   0  0  0  0  0  0  0  0  0  0  0  0
   -3.1564   -1.1409    0.3488 C   0  0  0  0  0  0  0  0  0  0  0  0
   -4.0170   -1.6401    1.0436 O   0  0  0  0  0  0  0  0  0  0  0  0
   -3.2042   -1.1508   -1.1574 C   0  0  2  0  0  0  0  0  0  0  0  0
   -4.2327   -1.3090   -1.4709 H   0  0  0  0  0  0  0  0  0  0  0  0
   -2.6043   -1.9820   -1.5230 H   0  0  0  0  0  0  0  0  0  0  0  0
   -2.8220   -0.2323   -1.5897 H   0  0  0  0  0  0  0  0  0  0  0  0
  1 13  1  0
  2  1  1  0
  2 14  1  1
  3 22  1  0
  3  2  1  0
  4  3  2  0
  5 15  1  1
  5  6  1  0
  5  2  1  0
  6  7  2  0
  7  9  1  0
  7 17  1  0
  8 10  2  0
  8  6  1  0
  9 19  1  0
 10 11  1  0
 11 12  1  0
 11  9  2  0
 12 21  1  0
 16  5  1  0
 18  8  1  0
 20 10  1  0
 22 23  1  0
 24 26  1  1
 24 22  1  0
 25 24  1  0
 27 24  1  0
 28  1  1  0
 28 29  2  0
 30 28  1  0
 30 31  1  1
 32 30  1  0
 33 30  1  0
M  END
$$$$
