-51.92000230
     RDKit          3D

 33 33  0  0  1  0  0  0  0  0999 V2000
   -2.0630   -1.2952    0.2642 N   0  0  0  0  0  0  0  0  0  0  0  0
   -1.4547   -0.1300    0.8520 C   0  0  2  0  0  0  0  0  0  0  0  0
   -0.9878    0.8495   -0.2482 C   0  0  0  0  0  0  0  0  0  0  0  0
   -1.0145    0.5681   -1.4239 O   0  0  0  0  0  0  0  0  0  0  0  0
   -0.2553   -0.5395    1.7436 C   0  0  1  0  0  0  0  0  0  0  0  0
    1.0650   -0.3785    1.0357 C   0  0  0  0  0  0  0  0  0  0  0  0
    1.3922   -1.1615   -0.0636 C   0  0  0  0  0  0  0  0  0  0  0  0
    1.9686    0.5964    1.4425 C   0  0  0  0  0  0  0  0  0  0  0  0
    2.5746   -0.9634   -0.7498 C   0  0  0  0  0  0  0  0  0  0  0  0
    3.1565    0.7999    0.7698 C   0  0  0  0  0  0  0  0  0  0  0  0
    3.4636    0.0242   -0.3431 C   0  0  0  0  0  0  0  0  0  0  0  0
    4.6332    0.2617   -0.9921 O   0  0  0  0  0  0  0  0  0  0  0  0
   -1.4285   -2.0217   -0.0378 H   0  0  0  0  0  0  0  0  0  0  0  0
   -2.2081    0.3745    1.4671 H   0  0  0  0  0  0  0  0  0  0  0  0
   -0.2511    0.0676    2.6506 H   0  0  0  0  0  0  0  0  0  0  0  0
   -0.3991   -1.5790    2.0466 H   0  0  0  0  0  0  0  0  0  0  0  0
    0.7190   -1.9342   -0.4014 H   0  0  0  0  0  0  0  0  0  0  0  0
    1.7449    1.2080    2.3060 H   0  0  0  0  0  0  0  0  0  0  0  0
    2.8076   -1.5756   -1.6104 H   0  0  0  0  0  0  0  0  0  0  0  0
    3.8566    1.5565    1.0865 H   0  0  0  0  0  0  0  0  0  0  0  0
    4.7167   -0.3343   -1.7463 H   0  0  0  0  0  0  0  0  0  0  0  0
   -0.5859    2.0470    0.2286 N   0  0  0  0  0  0  0  0  0  0  0  0
   -0.5128    2.1846    1.2233 H   0  0  0  0  0  0  0  0  0  0  0  0
    0.0261    3.0420   -0.6197 C   0  0  1  0  0  0  0  0  0  0  0  0
   -0.1361    2.7347   -1.6510 H   0  0  0  0  0  0  0  0  0  0  0  0
   -0.4334    4.0162   -0.4513 H   0  0  0  0  0  0  0  0  0  0  0  0
    1.0999    3.1080   -0.4306 H   0  0  0  0  0  0  0  0  0  0  0  0
   -3.3001   -1.3896   -0.2924 C   0  0  0  0  0  0  0  0  0  0  0  0
   -3.6320   -2.3952   -0.8811 O   0  0  0  0  0  0  0  0  0  0  0  0
   -4.2243   -0.2132   -0.0758 C   0  0  2  0  0  0  0  0  0  0  0  0
   -5.1772   -0.4307   -0.5493 H   0  0  0  0  0  0  0  0  0  0  0  0
   -3.7947    0.6795   -0.5245 H   0  0  0  0  0  0  0  0  0  0  0  0
   -4.3847   -0.0408    0.9866 H   0  0  0  0  0  0  0  0  0  0  0  0
  1  2  1  0
  2 14  1  1
  2  5  1  0
  3 22  1  0
  3  2  1  0
  4  3  2  0
  5 16  1  1
  5 15  1  0
  6  8  1  0
  6  5  1  0
  7  6  2  0
  8 18  1  0
  9 11  2  0
  9  7  1  0
 10 20  1  0
 10  8  2  0
 11 10  1  0
 12 11  1  0
 13  1  1  0
 17  7  1  0
 19  9  1  0
 21 12  1  0
 22 23  1  0
 24 26  1  6
 24 27  1  0
 24 22  1  0
 25 24  1  0
 28 30  1  0
 28  1  1  0
 29 28  2  0
 30 33  1  1
 31 30  1  0
 32 30  1  0
M  END
$$$$
