-51.92421266
     RDKit          3D

 33 33  0  0  1  0  0  0  0  0999 V2000
   -1.8482   -0.8519   -0.3096 N   0  0  0  0  0  0  0  0  0  0  0  0
   -1.6044    0.3381    0.4538 C   0  0  2  0  0  0  0  0  0  0  0  0
   -1.0444    1.3906   -0.5177 C   0  0  0  0  0  0  0  0  0  0  0  0
   -0.6369    1.0937   -1.6187 O   0  0  0  0  0  0  0  0  0  0  0  0
   -0.5556    0.1005    1.5754 C   0  0  1  0  0  0  0  0  0  0  0  0
    0.8122   -0.1010    0.9853 C   0  0  0  0  0  0  0  0  0  0  0  0
    1.7330    0.9388    0.9491 C   0  0  0  0  0  0  0  0  0  0  0  0
    1.1597   -1.3175    0.4137 C   0  0  0  0  0  0  0  0  0  0  0  0
    2.9678    0.7768    0.3553 C   0  0  0  0  0  0  0  0  0  0  0  0
    2.3916   -1.4895   -0.1880 C   0  0  0  0  0  0  0  0  0  0  0  0
    3.3033   -0.4417   -0.2255 C   0  0  0  0  0  0  0  0  0  0  0  0
    4.5265   -0.5648   -0.8059 O   0  0  0  0  0  0  0  0  0  0  0  0
   -1.2891   -0.9152   -1.1553 H   0  0  0  0  0  0  0  0  0  0  0  0
   -2.5382    0.7033    0.8973 H   0  0  0  0  0  0  0  0  0  0  0  0
   -0.5508    0.9579    2.2512 H   0  0  0  0  0  0  0  0  0  0  0  0
   -0.8509   -0.7834    2.1433 H   0  0  0  0  0  0  0  0  0  0  0  0
    1.4844    1.8912    1.3959 H   0  0  0  0  0  0  0  0  0  0  0  0
    0.4607   -2.1404    0.4332 H   0  0  0  0  0  0  0  0  0  0  0  0
    3.6845    1.5818    0.3248 H   0  0  0  0  0  0  0  0  0  0  0  0
    2.6460   -2.4411   -0.6355 H   0  0  0  0  0  0  0  0  0  0  0  0
    4.6184   -1.4452   -1.1898 H   0  0  0  0  0  0  0  0  0  0  0  0
   -1.0375    2.6447   -0.0282 N   0  0  0  0  0  0  0  0  0  0  0  0
   -1.3914    2.8248    0.8974 H   0  0  0  0  0  0  0  0  0  0  0  0
   -0.4815    3.7581   -0.7595 C   0  0  1  0  0  0  0  0  0  0  0  0
    0.3607    4.1939   -0.2192 H   0  0  0  0  0  0  0  0  0  0  0  0
   -0.1347    3.3759   -1.7176 H   0  0  0  0  0  0  0  0  0  0  0  0
   -1.2385    4.5260   -0.9264 H   0  0  0  0  0  0  0  0  0  0  0  0
   -2.7068   -1.8675   -0.0691 C   0  0  0  0  0  0  0  0  0  0  0  0
   -2.7540   -2.8338   -0.8006 O   0  0  0  0  0  0  0  0  0  0  0  0
   -3.6007   -1.7167    1.1458 C   0  0  2  0  0  0  0  0  0  0  0  0
   -4.2567   -0.8576    1.0192 H   0  0  0  0  0  0  0  0  0  0  0  0
   -3.0157   -1.5832    2.0520 H   0  0  0  0  0  0  0  0  0  0  0  0
   -4.2076   -2.6125    1.2397 H   0  0  0  0  0  0  0  0  0  0  0  0
  1 28  1  0
  1  2  1  0
  2 14  1  1
  2  5  1  0
  3 22  1  0
  3  2  1  0
  4  3  2  0
  5 16  1  1
  5 15  1  0
  6  5  1  0
  7  6  1  0
  7 17  1  0
  8 18  1  0
  8  6  2  0
  9  7  2  0
 10  8  1  0
 11 10  2  0
 11  9  1  0
 12 11  1  0
 13  1  1  0
 19  9  1  0
 20 10  1  0
 21 12  1  0
 22 23  1  0
 24 25  1  1
 24 22  1  0
 26 24  1  0
 27 24  1  0
 28 30  1  0
 29 28  2  0
 30 33  1  1
 30 32  1  0
 31 30  1  0
M  END
$$$$
