Coordinates from ORCA-job xac
     RDKit          3D

 36 37  0  0  0  0  0  0  0  0999 V2000
   -1.2070    1.2630   -0.2310 N   0  0  0  0  0  0  0  0  0  0  0  0
   -1.5610    0.1630   -1.0960 C   0  0  2  0  0  0  0  0  0  0  0  0
   -2.0620   -1.0870   -0.3650 C   0  0  0  0  0  0  0  0  0  0  0  0
   -2.4350   -2.0680   -1.0020 O   0  0  0  0  0  0  0  0  0  0  0  0
   -0.3490   -0.2570   -1.9430 C   0  0  1  0  0  0  0  0  0  0  0  0
   -0.2440    1.3440    0.0710 H   0  0  0  0  0  0  0  0  0  0  0  0
   -2.3630    0.4670   -1.7690 H   0  0  0  0  0  0  0  0  0  0  0  0
   -0.6850   -1.0460   -2.6150 H   0  0  0  0  0  0  0  0  0  0  0  0
   -0.0320    0.5940   -2.5470 H   0  0  0  0  0  0  0  0  0  0  0  0
   -2.0560    2.2050    0.2920 C   0  0  0  0  0  0  0  0  0  0  0  0
   -1.6520    3.0610    1.0670 O   0  0  0  0  0  0  0  0  0  0  0  0
   -2.0470   -1.0210    0.9830 N   0  0  0  0  0  0  0  0  0  0  0  0
   -1.6220   -0.2090    1.3980 H   0  0  0  0  0  0  0  0  0  0  0  0
   -2.3800   -2.1690    1.7970 C   0  0  1  0  0  0  0  0  0  0  0  0
   -1.4920   -2.7480    2.0550 H   0  0  0  0  0  0  0  0  0  0  0  0
   -2.8720   -1.8460    2.7100 H   0  0  0  0  0  0  0  0  0  0  0  0
   -3.0500   -2.8020    1.2240 H   0  0  0  0  0  0  0  0  0  0  0  0
   -3.4980    2.1170   -0.1470 C   0  0  2  0  0  0  0  0  0  0  0  0
   -4.0600    2.8650    0.4000 H   0  0  0  0  0  0  0  0  0  0  0  0
   -3.9120    1.1290    0.0480 H   0  0  0  0  0  0  0  0  0  0  0  0
   -3.5870    2.3120   -1.2160 H   0  0  0  0  0  0  0  0  0  0  0  0
    0.7710   -0.7440   -1.0850 C   0  0  2  0  0  0  0  0  0  0  0  0
    0.9390   -2.0360   -0.6280 C   0  0  0  0  0  0  0  0  0  0  0  0
    1.8140    0.0330   -0.4910 C   0  0  0  0  0  0  0  0  0  0  0  0
    0.3510   -2.9140   -0.8440 H   0  0  0  0  0  0  0  0  0  0  0  0
    2.5870   -0.8450    0.3190 C   0  0  0  0  0  0  0  0  0  0  0  0
    2.1850    1.3890   -0.5660 C   0  0  0  0  0  0  0  0  0  0  0  0
    2.3760   -2.9260    0.6460 H   0  0  0  0  0  0  0  0  0  0  0  0
    3.2840    1.8220    0.1580 C   0  0  0  0  0  0  0  0  0  0  0  0
    1.6270    2.0840   -1.1820 H   0  0  0  0  0  0  0  0  0  0  0  0
    2.0240   -2.0910    0.2130 N   0  0  0  0  0  0  0  0  0  0  0  0
    3.6980   -0.4100    1.0450 C   0  0  0  0  0  0  0  0  0  0  0  0
    4.0320    0.9330    0.9550 C   0  0  0  0  0  0  0  0  0  0  0  0
    4.2770   -1.0900    1.6550 H   0  0  0  0  0  0  0  0  0  0  0  0
    4.8850    1.3050    1.5060 H   0  0  0  0  0  0  0  0  0  0  0  0
    3.5770    2.8620    0.1110 H   0  0  0  0  0  0  0  0  0  0  0  0
  1  2  1  0
  1  6  1  0
  1 10  1  0
  2  5  1  0
  2  7  1  6
  2  3  1  0
  3  4  1  0
  3 12  1  0
  5  8  1  6
  5  9  1  0
  5 22  1  0
 10 18  1  0
 10 11  1  0
 12 13  1  0
 12 14  1  0
 14 17  1  6
 14 15  1  0
 14 16  1  0
 18 21  1  6
 18 20  1  0
 18 19  1  0
 22 23  1  1
 22 24  1  0
 23 25  1  0
 23 31  1  0
 24 27  1  0
 24 26  1  0
 26 31  1  0
 26 32  1  0
 27 30  1  0
 27 29  1  0
 28 31  1  0
 29 36  1  0
 29 33  1  0
 32 33  1  0
 32 34  1  0
 33 35  1  0
M  END
$$$$
