 energy: -42.541885528976 gnorm: 0.000040859215 xtb: 6.5.1 (9af7eec)
     RDKit          3D

 29 28  0  0  0  0  0  0  0  0999 V2000
   -1.5535   -0.6905   -0.6353 N   0  0  0  0  0  0  0  0  0  0  0  0
   -1.8898   -0.2054   -1.4518 H   0  0  0  0  0  0  0  0  0  0  0  0
   -0.1844   -0.3790   -0.2483 C   0  0  1  0  0  0  0  0  0  0  0  0
    0.1739    0.3674   -0.9639 H   0  0  0  0  0  0  0  0  0  0  0  0
   -0.1016    0.2184    1.1635 C   0  0  2  0  0  0  0  0  0  0  0  0
    0.9469    0.4327    1.3775 H   0  0  0  0  0  0  0  0  0  0  0  0
   -0.4564   -0.5113    1.8934 H   0  0  0  0  0  0  0  0  0  0  0  0
   -0.9415    1.4807    1.3103 C   0  0  2  0  0  0  0  0  0  0  0  0
   -0.7636    1.9507    2.2780 H   0  0  0  0  0  0  0  0  0  0  0  0
   -2.0028    1.2494    1.2239 H   0  0  0  0  0  0  0  0  0  0  0  0
   -0.6394    2.7361    0.0213 S   0  0  0  0  0  0  0  0  0  0  0  0
    1.0783    3.1814    0.3976 C   0  0  2  0  0  0  0  0  0  0  0  0
    1.1581    3.4422    1.4492 H   0  0  0  0  0  0  0  0  0  0  0  0
    1.3164    4.0424   -0.2179 H   0  0  0  0  0  0  0  0  0  0  0  0
    1.7404    2.3570    0.1498 H   0  0  0  0  0  0  0  0  0  0  0  0
    0.7906   -1.5701   -0.3568 C   0  0  0  0  0  0  0  0  0  0  0  0
    1.8213   -1.4684   -0.9932 O   0  0  0  0  0  0  0  0  0  0  0  0
    0.4212   -2.6564    0.3302 N   0  0  0  0  0  0  0  0  0  0  0  0
   -0.4670   -2.6480    0.8271 H   0  0  0  0  0  0  0  0  0  0  0  0
   -2.4503   -1.4115    0.0650 C   0  0  0  0  0  0  0  0  0  0  0  0
   -2.1770   -2.0345    1.0785 O   0  0  0  0  0  0  0  0  0  0  0  0
   -3.8387   -1.3968   -0.5336 C   0  0  2  0  0  0  0  0  0  0  0  0
   -4.2165   -0.3779   -0.5868 H   0  0  0  0  0  0  0  0  0  0  0  0
   -4.5019   -1.9940    0.0855 H   0  0  0  0  0  0  0  0  0  0  0  0
   -3.8152   -1.8132   -1.5384 H   0  0  0  0  0  0  0  0  0  0  0  0
    1.2137   -3.8604    0.3584 C   0  0  1  0  0  0  0  0  0  0  0  0
    1.4953   -4.1050    1.3839 H   0  0  0  0  0  0  0  0  0  0  0  0
    0.6551   -4.6970   -0.0654 H   0  0  0  0  0  0  0  0  0  0  0  0
    2.1115   -3.6869   -0.2331 H   0  0  0  0  0  0  0  0  0  0  0  0
  1  3  1  0
  1 20  1  0
  1  2  1  0
  3  4  1  6
  3  5  1  0
  3 16  1  0
  5  8  1  0
  5  7  1  1
  5  6  1  0
  8  9  1  1
  8 10  1  0
  8 11  1  0
 11 12  1  0
 12 14  1  6
 12 13  1  0
 12 15  1  0
 16 18  1  0
 16 17  1  0
 18 19  1  0
 18 26  1  0
 20 21  1  0
 20 22  1  0
 22 24  1  1
 22 23  1  0
 22 25  1  0
 26 27  1  1
 26 28  1  0
 26 29  1  0
M  END
$$$$
