 energy: -42.540006613069 gnorm: 0.000038579833 xtb: 6.5.1 (9af7eec)
     RDKit          3D

 29 28  0  0  0  0  0  0  0  0999 V2000
   -1.3286   -1.1588    0.1201 N   0  0  0  0  0  0  0  0  0  0  0  0
   -1.6704   -1.6492   -0.6981 H   0  0  0  0  0  0  0  0  0  0  0  0
   -0.8303    0.1671   -0.1540 C   0  0  1  0  0  0  0  0  0  0  0  0
   -1.3498    0.8888    0.4922 H   0  0  0  0  0  0  0  0  0  0  0  0
    0.6801    0.2673    0.1331 C   0  0  2  0  0  0  0  0  0  0  0  0
    0.8202    0.0173    1.1862 H   0  0  0  0  0  0  0  0  0  0  0  0
    1.0266    1.2909   -0.0205 H   0  0  0  0  0  0  0  0  0  0  0  0
    1.4881   -0.6785   -0.7409 C   0  0  2  0  0  0  0  0  0  0  0  0
    1.4319   -0.3910   -1.7907 H   0  0  0  0  0  0  0  0  0  0  0  0
    1.1454   -1.7076   -0.6362 H   0  0  0  0  0  0  0  0  0  0  0  0
    3.2592   -0.6415   -0.3126 S   0  0  0  0  0  0  0  0  0  0  0  0
    3.2350   -1.6920    1.1667 C   0  0  2  0  0  0  0  0  0  0  0  0
    2.5639   -1.2737    1.9106 H   0  0  0  0  0  0  0  0  0  0  0  0
    4.2488   -1.7111    1.5519 H   0  0  0  0  0  0  0  0  0  0  0  0
    2.9230   -2.6955    0.8900 H   0  0  0  0  0  0  0  0  0  0  0  0
   -1.1426    0.4651   -1.6231 C   0  0  0  0  0  0  0  0  0  0  0  0
   -1.5710   -0.3928   -2.3700 O   0  0  0  0  0  0  0  0  0  0  0  0
   -0.8993    1.7316   -1.9980 N   0  0  0  0  0  0  0  0  0  0  0  0
   -0.5526    2.3928   -1.3217 H   0  0  0  0  0  0  0  0  0  0  0  0
   -1.4014   -1.6887    1.3594 C   0  0  0  0  0  0  0  0  0  0  0  0
   -1.0133   -1.0986    2.3469 O   0  0  0  0  0  0  0  0  0  0  0  0
   -2.0021   -3.0781    1.3879 C   0  0  2  0  0  0  0  0  0  0  0  0
   -3.0326   -3.0403    1.0421 H   0  0  0  0  0  0  0  0  0  0  0  0
   -1.9787   -3.4592    2.4044 H   0  0  0  0  0  0  0  0  0  0  0  0
   -1.4416   -3.7448    0.7368 H   0  0  0  0  0  0  0  0  0  0  0  0
   -1.0935    2.1975   -3.3504 C   0  0  1  0  0  0  0  0  0  0  0  0
   -1.4684    1.3594   -3.9349 H   0  0  0  0  0  0  0  0  0  0  0  0
   -1.8200    3.0110   -3.3757 H   0  0  0  0  0  0  0  0  0  0  0  0
   -0.1506    2.5441   -3.7767 H   0  0  0  0  0  0  0  0  0  0  0  0
  1  3  1  0
  1 20  1  0
  1  2  1  0
  3  4  1  1
  3  5  1  0
  3 16  1  0
  5  8  1  0
  5  7  1  1
  5  6  1  0
  8  9  1  6
  8 10  1  0
  8 11  1  0
 11 12  1  0
 12 14  1  1
 12 13  1  0
 12 15  1  0
 16 18  1  0
 16 17  1  0
 18 19  1  0
 18 26  1  0
 20 21  1  0
 20 22  1  0
 22 24  1  1
 22 23  1  0
 22 25  1  0
 26 27  1  6
 26 28  1  0
 26 29  1  0
M  END
$$$$
