 energy: -42.544228855671 gnorm: 0.000030439675 xtb: 6.5.1 (9af7eec)
     RDKit          3D

 29 28  0  0  0  0  0  0  0  0999 V2000
   -1.8419   -0.1313    0.9177 N   0  0  0  0  0  0  0  0  0  0  0  0
   -2.8530   -0.1877    0.8590 H   0  0  0  0  0  0  0  0  0  0  0  0
   -1.2056    0.8473    0.0561 C   0  0  1  0  0  0  0  0  0  0  0  0
   -0.2324    0.4306   -0.2414 H   0  0  0  0  0  0  0  0  0  0  0  0
   -2.0425    1.0972   -1.2013 C   0  0  2  0  0  0  0  0  0  0  0  0
   -2.1027    0.1705   -1.7771 H   0  0  0  0  0  0  0  0  0  0  0  0
   -1.5070    1.8336   -1.8041 H   0  0  0  0  0  0  0  0  0  0  0  0
   -3.4386    1.6537   -0.9457 C   0  0  2  0  0  0  0  0  0  0  0  0
   -3.8567    2.0585   -1.8677 H   0  0  0  0  0  0  0  0  0  0  0  0
   -3.3964    2.4464   -0.2014 H   0  0  0  0  0  0  0  0  0  0  0  0
   -4.6593    0.4491   -0.3165 S   0  0  0  0  0  0  0  0  0  0  0  0
   -4.9128   -0.5675   -1.8001 C   0  0  2  0  0  0  0  0  0  0  0  0
   -5.2127    0.0740   -2.6240 H   0  0  0  0  0  0  0  0  0  0  0  0
   -5.7075   -1.2675   -1.5652 H   0  0  0  0  0  0  0  0  0  0  0  0
   -4.0045   -1.1097   -2.0461 H   0  0  0  0  0  0  0  0  0  0  0  0
   -0.9035    2.1582    0.8213 C   0  0  0  0  0  0  0  0  0  0  0  0
   -1.4097    3.2275    0.5407 O   0  0  0  0  0  0  0  0  0  0  0  0
   -0.0087    1.9766    1.8008 N   0  0  0  0  0  0  0  0  0  0  0  0
    0.3485    1.0393    1.9699 H   0  0  0  0  0  0  0  0  0  0  0  0
   -1.1674   -0.9263    1.7654 C   0  0  0  0  0  0  0  0  0  0  0  0
    0.0400   -0.8405    1.9305 O   0  0  0  0  0  0  0  0  0  0  0  0
   -2.0378   -1.9256    2.4902 C   0  0  2  0  0  0  0  0  0  0  0  0
   -2.7771   -1.4019    3.0921 H   0  0  0  0  0  0  0  0  0  0  0  0
   -1.4187   -2.5422    3.1349 H   0  0  0  0  0  0  0  0  0  0  0  0
   -2.5591   -2.5580    1.7754 H   0  0  0  0  0  0  0  0  0  0  0  0
    0.4178    3.0424    2.6730 C   0  0  1  0  0  0  0  0  0  0  0  0
    1.5003    3.1672    2.6172 H   0  0  0  0  0  0  0  0  0  0  0  0
   -0.0707    3.9593    2.3465 H   0  0  0  0  0  0  0  0  0  0  0  0
    0.1376    2.8294    3.7064 H   0  0  0  0  0  0  0  0  0  0  0  0
  1  3  1  0
  1 20  1  0
  1  2  1  0
  3  4  1  6
  3  5  1  0
  3 16  1  0
  5  8  1  0
  5  7  1  6
  5  6  1  0
  8  9  1  6
  8 10  1  0
  8 11  1  0
 11 12  1  0
 12 14  1  1
 12 13  1  0
 12 15  1  0
 16 18  1  0
 16 17  1  0
 18 19  1  0
 18 26  1  0
 20 21  1  0
 20 22  1  0
 22 24  1  1
 22 23  1  0
 22 25  1  0
 26 27  1  1
 26 28  1  0
 26 29  1  0
M  END
$$$$
