 energy: -42.544447302997 gnorm: 0.000038398138 xtb: 6.5.1 (9af7eec)
     RDKit          3D

 29 28  0  0  0  0  0  0  0  0999 V2000
   -1.1118    1.1034    0.1858 N   0  0  0  0  0  0  0  0  0  0  0  0
   -1.8108    1.5997    0.7312 H   0  0  0  0  0  0  0  0  0  0  0  0
   -0.6478    1.7858   -1.0101 C   0  0  1  0  0  0  0  0  0  0  0  0
   -0.4902    1.0148   -1.7785 H   0  0  0  0  0  0  0  0  0  0  0  0
   -1.7150    2.7606   -1.5178 C   0  0  2  0  0  0  0  0  0  0  0  0
   -2.6476    2.2050   -1.6456 H   0  0  0  0  0  0  0  0  0  0  0  0
   -1.3958    3.1181   -2.4994 H   0  0  0  0  0  0  0  0  0  0  0  0
   -1.9724    3.9945   -0.6590 C   0  0  2  0  0  0  0  0  0  0  0  0
   -2.7163    4.6208   -1.1515 H   0  0  0  0  0  0  0  0  0  0  0  0
   -1.0546    4.5595   -0.5199 H   0  0  0  0  0  0  0  0  0  0  0  0
   -2.6379    3.6429    1.0131 S   0  0  0  0  0  0  0  0  0  0  0  0
   -1.2005    4.1011    2.0274 C   0  0  2  0  0  0  0  0  0  0  0  0
   -0.3129    3.6058    1.6471 H   0  0  0  0  0  0  0  0  0  0  0  0
   -1.4108    3.7808    3.0428 H   0  0  0  0  0  0  0  0  0  0  0  0
   -1.0748    5.1795    1.9968 H   0  0  0  0  0  0  0  0  0  0  0  0
    0.7329    2.4381   -0.7645 C   0  0  0  0  0  0  0  0  0  0  0  0
    0.9249    3.6401   -0.7479 O   0  0  0  0  0  0  0  0  0  0  0  0
    1.6911    1.5217   -0.5783 N   0  0  0  0  0  0  0  0  0  0  0  0
    1.4283    0.5381   -0.5595 H   0  0  0  0  0  0  0  0  0  0  0  0
   -0.7278   -0.1368    0.5301 C   0  0  0  0  0  0  0  0  0  0  0  0
    0.1324   -0.7540   -0.0800 O   0  0  0  0  0  0  0  0  0  0  0  0
   -1.4436   -0.6852    1.7417 C   0  0  2  0  0  0  0  0  0  0  0  0
   -1.2566   -0.0480    2.6032 H   0  0  0  0  0  0  0  0  0  0  0  0
   -1.0832   -1.6881    1.9501 H   0  0  0  0  0  0  0  0  0  0  0  0
   -2.5155   -0.7158    1.5601 H   0  0  0  0  0  0  0  0  0  0  0  0
    3.0617    1.8720   -0.2998 C   0  0  1  0  0  0  0  0  0  0  0  0
    3.7238    1.4205   -1.0398 H   0  0  0  0  0  0  0  0  0  0  0  0
    3.1498    2.9566   -0.3480 H   0  0  0  0  0  0  0  0  0  0  0  0
    3.3534    1.5273    0.6943 H   0  0  0  0  0  0  0  0  0  0  0  0
  1  3  1  0
  1 20  1  0
  1  2  1  0
  3  4  1  6
  3  5  1  0
  3 16  1  0
  5  8  1  0
  5  7  1  6
  5  6  1  0
  8  9  1  6
  8 10  1  0
  8 11  1  0
 11 12  1  0
 12 14  1  1
 12 13  1  0
 12 15  1  0
 16 18  1  0
 16 17  1  0
 18 19  1  0
 18 26  1  0
 20 21  1  0
 20 22  1  0
 22 24  1  1
 22 23  1  0
 22 25  1  0
 26 27  1  6
 26 28  1  0
 26 29  1  0
M  END
$$$$
