 energy: -42.542081669227 gnorm: 0.000037050914 xtb: 6.5.1 (9af7eec)
     RDKit          3D

 29 28  0  0  0  0  0  0  0  0999 V2000
   -1.4934    0.1989    0.5801 N   0  0  0  0  0  0  0  0  0  0  0  0
   -1.8572    0.8906    1.2164 H   0  0  0  0  0  0  0  0  0  0  0  0
   -0.8644    0.6888   -0.6350 C   0  0  1  0  0  0  0  0  0  0  0  0
   -0.9782   -0.0914   -1.3975 H   0  0  0  0  0  0  0  0  0  0  0  0
   -1.5329    1.9790   -1.0964 C   0  0  2  0  0  0  0  0  0  0  0  0
   -1.2430    2.7868   -0.4194 H   0  0  0  0  0  0  0  0  0  0  0  0
   -2.6182    1.8601   -1.0606 H   0  0  0  0  0  0  0  0  0  0  0  0
   -1.0886    2.3627   -2.5005 C   0  0  2  0  0  0  0  0  0  0  0  0
   -0.0046    2.4583   -2.5356 H   0  0  0  0  0  0  0  0  0  0  0  0
   -1.5393    3.3065   -2.8080 H   0  0  0  0  0  0  0  0  0  0  0  0
   -1.5035    1.1182   -3.7652 S   0  0  0  0  0  0  0  0  0  0  0  0
   -3.2988    1.3704   -3.8838 C   0  0  2  0  0  0  0  0  0  0  0  0
   -3.7846    1.0496   -2.9669 H   0  0  0  0  0  0  0  0  0  0  0  0
   -3.6425    0.7605   -4.7122 H   0  0  0  0  0  0  0  0  0  0  0  0
   -3.5037    2.4184   -4.0835 H   0  0  0  0  0  0  0  0  0  0  0  0
    0.6430    0.9111   -0.3792 C   0  0  0  0  0  0  0  0  0  0  0  0
    1.1241    2.0143   -0.2096 O   0  0  0  0  0  0  0  0  0  0  0  0
    1.3330   -0.2371   -0.3518 N   0  0  0  0  0  0  0  0  0  0  0  0
    0.8221   -1.1116   -0.4111 H   0  0  0  0  0  0  0  0  0  0  0  0
   -1.4404   -1.0968    0.9558 C   0  0  0  0  0  0  0  0  0  0  0  0
   -0.8742   -1.9450    0.2913 O   0  0  0  0  0  0  0  0  0  0  0  0
   -2.1517   -1.3914    2.2566 C   0  0  2  0  0  0  0  0  0  0  0  0
   -1.6409   -0.8908    3.0769 H   0  0  0  0  0  0  0  0  0  0  0  0
   -2.1437   -2.4627    2.4341 H   0  0  0  0  0  0  0  0  0  0  0  0
   -3.1795   -1.0384    2.2168 H   0  0  0  0  0  0  0  0  0  0  0  0
    2.7466   -0.2896   -0.0721 C   0  0  1  0  0  0  0  0  0  0  0  0
    3.1103    0.7340    0.0060 H   0  0  0  0  0  0  0  0  0  0  0  0
    2.9371   -0.8148    0.8660 H   0  0  0  0  0  0  0  0  0  0  0  0
    3.2716   -0.8019   -0.8795 H   0  0  0  0  0  0  0  0  0  0  0  0
  1  3  1  0
  1 20  1  0
  1  2  1  0
  3  4  1  6
  3  5  1  0
  3 16  1  0
  5  8  1  0
  5  7  1  6
  5  6  1  0
  8  9  1  1
  8 10  1  0
  8 11  1  0
 11 12  1  0
 12 14  1  6
 12 13  1  0
 12 15  1  0
 16 18  1  0
 16 17  1  0
 18 19  1  0
 18 26  1  0
 20 21  1  0
 20 22  1  0
 22 24  1  1
 22 23  1  0
 22 25  1  0
 26 27  1  1
 26 28  1  0
 26 29  1  0
M  END
$$$$
