 energy: -46.276557224780 gnorm: 0.000028074512 xtb: 6.5.1 (9af7eec)
     RDKit          3D

 29 29  0  0  0  0  0  0  0  0999 V2000
    2.6088   -1.2301   -0.6892 N   0  0  0  0  0  0  0  0  0  0  0  0
    2.8219   -2.0152   -1.2891 H   0  0  0  0  0  0  0  0  0  0  0  0
    1.6327   -1.4917    0.3480 C   0  0  1  0  0  0  0  0  0  0  0  0
    1.3174   -0.5165    0.7384 H   0  0  0  0  0  0  0  0  0  0  0  0
    0.4052   -2.2172   -0.2455 C   0  0  1  0  0  0  0  0  0  0  0  0
    2.2543   -2.2967    1.4979 C   0  0  0  0  0  0  0  0  0  0  0  0
   -0.2218   -2.5633    0.5780 H   0  0  0  0  0  0  0  0  0  0  0  0
   -0.1602   -1.5044   -0.8473 H   0  0  0  0  0  0  0  0  0  0  0  0
    0.7982   -3.3677   -1.1050 C   0  0  0  0  0  0  0  0  0  0  0  0
    1.8657   -3.4133    1.8028 O   0  0  0  0  0  0  0  0  0  0  0  0
    1.1818   -4.5770   -0.5935 N   0  0  0  0  0  0  0  0  0  0  0  0
    0.9170   -3.4978   -2.4646 C   0  0  0  0  0  0  0  0  0  0  0  0
    1.2696   -4.7535    0.3984 H   0  0  0  0  0  0  0  0  0  0  0  0
    1.5097   -5.3630   -1.6421 C   0  0  0  0  0  0  0  0  0  0  0  0
    1.3572   -4.7441   -2.7808 N   0  0  0  0  0  0  0  0  0  0  0  0
    0.6987   -2.7796   -3.2301 H   0  0  0  0  0  0  0  0  0  0  0  0
    1.8483   -6.3743   -1.5387 H   0  0  0  0  0  0  0  0  0  0  0  0
    2.8932    0.0229   -1.1242 C   0  0  0  0  0  0  0  0  0  0  0  0
    3.7291    0.0516   -2.3811 C   0  0  2  0  0  0  0  0  0  0  0  0
    2.5346    1.0145   -0.5227 O   0  0  0  0  0  0  0  0  0  0  0  0
    4.0075    1.0769   -2.6059 H   0  0  0  0  0  0  0  0  0  0  0  0
    3.1556   -0.3538   -3.2121 H   0  0  0  0  0  0  0  0  0  0  0  0
    4.6257   -0.5501   -2.2531 H   0  0  0  0  0  0  0  0  0  0  0  0
    3.2483   -1.7169    2.1864 N   0  0  0  0  0  0  0  0  0  0  0  0
    3.8695   -0.4259    2.0225 C   0  0  1  0  0  0  0  0  0  0  0  0
    3.6360   -2.3033    2.9150 H   0  0  0  0  0  0  0  0  0  0  0  0
    4.8190   -0.5180    1.4879 H   0  0  0  0  0  0  0  0  0  0  0  0
    3.2283    0.2550    1.4691 H   0  0  0  0  0  0  0  0  0  0  0  0
    4.0649    0.0025    3.0055 H   0  0  0  0  0  0  0  0  0  0  0  0
  1  2  1  0
  1 18  1  0
  1  3  1  0
  3  6  1  0
  3  4  1  1
  3  5  1  0
  5  9  1  0
  5  8  1  6
  5  7  1  0
  6 10  1  0
  6 24  1  0
  9 11  1  0
  9 12  1  0
 11 14  1  0
 11 13  1  0
 12 15  1  0
 12 16  1  0
 14 17  1  0
 14 15  1  0
 18 19  1  0
 18 20  1  0
 19 23  1  1
 19 21  1  0
 19 22  1  0
 24 25  1  0
 24 26  1  0
 25 29  1  1
 25 28  1  0
 25 27  1  0
M  END
$$$$
