 energy: -46.274364917347 gnorm: 0.000038431598 xtb: 6.5.1 (9af7eec)
     RDKit          3D

 29 29  0  0  0  0  0  0  0  0999 V2000
    1.8276   -0.6668   -0.7754 N   0  0  0  0  0  0  0  0  0  0  0  0
    2.7842   -0.7922   -0.4564 H   0  0  0  0  0  0  0  0  0  0  0  0
    0.8650   -0.8522    0.2833 C   0  0  1  0  0  0  0  0  0  0  0  0
    0.3008    0.0790    0.4414 H   0  0  0  0  0  0  0  0  0  0  0  0
   -0.1432   -1.9850   -0.0305 C   0  0  1  0  0  0  0  0  0  0  0  0
    1.6863   -1.1563    1.5449 C   0  0  0  0  0  0  0  0  0  0  0  0
   -0.7193   -2.2205    0.8659 H   0  0  0  0  0  0  0  0  0  0  0  0
   -0.8238   -1.6187   -0.8011 H   0  0  0  0  0  0  0  0  0  0  0  0
    0.5406   -3.2059   -0.5345 C   0  0  0  0  0  0  0  0  0  0  0  0
    2.8932   -1.2830    1.4981 O   0  0  0  0  0  0  0  0  0  0  0  0
    0.6585   -3.4619   -1.8752 N   0  0  0  0  0  0  0  0  0  0  0  0
    1.1829   -4.2427    0.0872 C   0  0  0  0  0  0  0  0  0  0  0  0
    0.3057   -2.8618   -2.6056 H   0  0  0  0  0  0  0  0  0  0  0  0
    1.3505   -4.6177   -1.9960 C   0  0  0  0  0  0  0  0  0  0  0  0
    1.6761   -5.1105   -0.8341 N   0  0  0  0  0  0  0  0  0  0  0  0
    1.3185   -4.4173    1.1356 H   0  0  0  0  0  0  0  0  0  0  0  0
    1.5901   -5.0650   -2.9398 H   0  0  0  0  0  0  0  0  0  0  0  0
    1.5546   -0.5405   -2.0870 C   0  0  0  0  0  0  0  0  0  0  0  0
    2.7971   -0.4425   -2.9464 C   0  0  2  0  0  0  0  0  0  0  0  0
    0.4248   -0.5146   -2.5402 O   0  0  0  0  0  0  0  0  0  0  0  0
    2.5099   -0.2773   -3.9808 H   0  0  0  0  0  0  0  0  0  0  0  0
    3.3671   -1.3666   -2.8730 H   0  0  0  0  0  0  0  0  0  0  0  0
    3.4234    0.3793   -2.6088 H   0  0  0  0  0  0  0  0  0  0  0  0
    0.9686   -1.2443    2.6762 N   0  0  0  0  0  0  0  0  0  0  0  0
    1.5644   -1.5568    3.9534 C   0  0  1  0  0  0  0  0  0  0  0  0
   -0.0289   -1.1059    2.6487 H   0  0  0  0  0  0  0  0  0  0  0  0
    1.1503   -2.4831    4.3545 H   0  0  0  0  0  0  0  0  0  0  0  0
    2.6341   -1.6784    3.7943 H   0  0  0  0  0  0  0  0  0  0  0  0
    1.3928   -0.7480    4.6655 H   0  0  0  0  0  0  0  0  0  0  0  0
  1  2  1  0
  1 18  1  0
  1  3  1  0
  3  6  1  0
  3  4  1  1
  3  5  1  0
  5  9  1  0
  5  8  1  6
  5  7  1  0
  6 10  1  0
  6 24  1  0
  9 11  1  0
  9 12  1  0
 11 14  1  0
 11 13  1  0
 12 15  1  0
 12 16  1  0
 14 17  1  0
 14 15  1  0
 18 19  1  0
 18 20  1  0
 19 23  1  1
 19 21  1  0
 19 22  1  0
 24 25  1  0
 24 26  1  0
 25 29  1  1
 25 28  1  0
 25 27  1  0
M  END
$$$$
