 energy: -46.275857538079 gnorm: 0.000034294940 xtb: 6.5.1 (9af7eec)
     RDKit          3D

 29 29  0  0  0  0  0  0  0  0999 V2000
    1.6776   -0.9038   -1.3227 N   0  0  0  0  0  0  0  0  0  0  0  0
    2.1539   -0.3068   -1.9792 H   0  0  0  0  0  0  0  0  0  0  0  0
    0.5780   -0.2874   -0.5903 C   0  0  1  0  0  0  0  0  0  0  0  0
    0.4274    0.7010   -1.0325 H   0  0  0  0  0  0  0  0  0  0  0  0
   -0.7359   -1.0901   -0.7224 C   0  0  1  0  0  0  0  0  0  0  0  0
    0.9128   -0.0582    0.8988 C   0  0  0  0  0  0  0  0  0  0  0  0
   -0.7010   -1.9686   -0.0769 H   0  0  0  0  0  0  0  0  0  0  0  0
   -1.5525   -0.4470   -0.3912 H   0  0  0  0  0  0  0  0  0  0  0  0
   -0.9538   -1.5305   -2.1271 C   0  0  2  0  0  0  0  0  0  0  0  0
    0.8496    1.0488    1.3924 O   0  0  0  0  0  0  0  0  0  0  0  0
   -0.6867   -2.8117   -2.5344 N   0  0  0  0  0  0  0  0  0  0  0  0
   -1.3439   -0.8698   -3.2610 C   0  0  0  0  0  0  0  0  0  0  0  0
   -0.3457   -3.5486   -1.9364 H   0  0  0  0  0  0  0  0  0  0  0  0
   -0.9277   -2.8624   -3.8654 C   0  0  0  0  0  0  0  0  0  0  0  0
   -1.3241   -1.7109   -4.3281 N   0  0  0  0  0  0  0  0  0  0  0  0
   -1.6458    0.1521   -3.3718 H   0  0  0  0  0  0  0  0  0  0  0  0
   -0.8071   -3.7507   -4.4523 H   0  0  0  0  0  0  0  0  0  0  0  0
    2.0300   -2.2021   -1.3025 C   0  0  0  0  0  0  0  0  0  0  0  0
    3.1008   -2.5592   -2.3061 C   0  0  2  0  0  0  0  0  0  0  0  0
    1.5320   -3.0254   -0.5483 O   0  0  0  0  0  0  0  0  0  0  0  0
    3.3902   -3.5975   -2.1712 H   0  0  0  0  0  0  0  0  0  0  0  0
    3.9725   -1.9222   -2.1751 H   0  0  0  0  0  0  0  0  0  0  0  0
    2.7171   -2.4236   -3.3159 H   0  0  0  0  0  0  0  0  0  0  0  0
    1.2432   -1.1740    1.5623 N   0  0  0  0  0  0  0  0  0  0  0  0
    1.5899   -1.1675    2.9619 C   0  0  1  0  0  0  0  0  0  0  0  0
    1.2965   -2.0539    1.0576 H   0  0  0  0  0  0  0  0  0  0  0  0
    2.6172   -1.5076    3.1052 H   0  0  0  0  0  0  0  0  0  0  0  0
    1.4918   -0.1463    3.3268 H   0  0  0  0  0  0  0  0  0  0  0  0
    0.9182   -1.8199    3.5223 H   0  0  0  0  0  0  0  0  0  0  0  0
  1  2  1  0
  1 18  1  0
  1  3  1  0
  3  6  1  0
  3  4  1  6
  3  5  1  0
  5  9  1  0
  5  8  1  1
  5  7  1  0
  6 10  1  0
  6 24  1  0
  9 11  1  0
  9 12  1  6
 11 14  1  0
 11 13  1  0
 12 15  1  0
 12 16  1  0
 14 17  1  0
 14 15  1  0
 18 19  1  0
 18 20  1  0
 19 23  1  6
 19 21  1  0
 19 22  1  0
 24 25  1  0
 24 26  1  0
 25 29  1  1
 25 28  1  0
 25 27  1  0
M  END
$$$$
