-40.19113164
     RDKit          3D

 26 25  0  0  1  0  0  0  0  0999 V2000
    0.9875    0.9177   -0.4368 N   0  0  0  0  0  0  0  0  0  0  0  0
   -0.1116    0.3042    0.2666 C   0  0  2  0  0  0  0  0  0  0  0  0
   -0.5489   -0.9727   -0.4742 C   0  0  0  0  0  0  0  0  0  0  0  0
   -0.4566   -1.0626   -1.6817 O   0  0  0  0  0  0  0  0  0  0  0  0
   -1.2688    1.3233    0.3867 C   0  0  2  0  0  0  0  0  0  0  0  0
   -2.0480    0.9401    1.5053 O   0  0  0  0  0  0  0  0  0  0  0  0
   -2.1165    1.4162   -0.8783 C   0  0  2  0  0  0  0  0  0  0  0  0
    0.7446    1.4586   -1.2556 H   0  0  0  0  0  0  0  0  0  0  0  0
    0.2084    0.0612    1.2819 H   0  0  0  0  0  0  0  0  0  0  0  0
   -0.8051    2.3040    0.5894 H   0  0  0  0  0  0  0  0  0  0  0  0
   -2.8379    1.4912    1.5312 H   0  0  0  0  0  0  0  0  0  0  0  0
   -2.6992    0.5063   -1.0043 H   0  0  0  0  0  0  0  0  0  0  0  0
   -1.4864    1.5371   -1.7542 H   0  0  0  0  0  0  0  0  0  0  0  0
   -2.7957    2.2651   -0.8163 H   0  0  0  0  0  0  0  0  0  0  0  0
   -1.0175   -1.9929    0.2690 N   0  0  0  0  0  0  0  0  0  0  0  0
   -1.2426   -2.8217   -0.2641 H   0  0  0  0  0  0  0  0  0  0  0  0
   -1.1697   -2.0706    1.7033 C   0  0  1  0  0  0  0  0  0  0  0  0
   -1.8704   -2.8687    1.9376 H   0  0  0  0  0  0  0  0  0  0  0  0
   -0.2164   -2.2929    2.1935 H   0  0  0  0  0  0  0  0  0  0  0  0
   -1.5664   -1.1346    2.0916 H   0  0  0  0  0  0  0  0  0  0  0  0
    2.2984    0.5639   -0.3791 C   0  0  0  0  0  0  0  0  0  0  0  0
    3.1083    1.0726   -1.1224 O   0  0  0  0  0  0  0  0  0  0  0  0
    2.6728   -0.4449    0.6844 C   0  0  2  0  0  0  0  0  0  0  0  0
    2.4257   -0.0680    1.6745 H   0  0  0  0  0  0  0  0  0  0  0  0
    3.7426   -0.6239    0.6282 H   0  0  0  0  0  0  0  0  0  0  0  0
    2.1424   -1.3789    0.5121 H   0  0  0  0  0  0  0  0  0  0  0  0
  1 21  1  0
  1  2  1  0
  2  5  1  0
  2  9  1  1
  3  2  1  0
  3 15  1  0
  4  3  2  0
  5 10  1  1
  5  6  1  0
  6 11  1  0
  7 14  1  1
  7  5  1  0
  8  1  1  0
 12  7  1  0
 13  7  1  0
 15 17  1  0
 16 15  1  0
 17 18  1  6
 17 20  1  0
 17 19  1  0
 21 23  1  0
 22 21  2  0
 23 24  1  1
 25 23  1  0
 26 23  1  0
M  END
$$$$
