-40.19399932
     RDKit          3D

 26 25  0  0  1  0  0  0  0  0999 V2000
    0.7054    0.5208   -0.6194 N   0  0  0  0  0  0  0  0  0  0  0  0
   -0.2654    0.0088    0.3141 C   0  0  2  0  0  0  0  0  0  0  0  0
   -0.9207   -1.2406   -0.2812 C   0  0  0  0  0  0  0  0  0  0  0  0
   -1.5278   -1.1789   -1.3382 O   0  0  0  0  0  0  0  0  0  0  0  0
   -1.3970    1.0646    0.5089 C   0  0  2  0  0  0  0  0  0  0  0  0
   -1.9249    1.4569   -0.7244 O   0  0  0  0  0  0  0  0  0  0  0  0
   -0.8591    2.3020    1.2195 C   0  0  2  0  0  0  0  0  0  0  0  0
    0.3069    0.8753   -1.4818 H   0  0  0  0  0  0  0  0  0  0  0  0
    0.2057   -0.1986    1.2720 H   0  0  0  0  0  0  0  0  0  0  0  0
   -2.1839    0.5970    1.1308 H   0  0  0  0  0  0  0  0  0  0  0  0
   -2.0784    0.6560   -1.2579 H   0  0  0  0  0  0  0  0  0  0  0  0
   -1.6428    3.0520    1.2643 H   0  0  0  0  0  0  0  0  0  0  0  0
   -0.0228    2.7120    0.6595 H   0  0  0  0  0  0  0  0  0  0  0  0
   -0.5392    2.0565    2.2286 H   0  0  0  0  0  0  0  0  0  0  0  0
   -0.8425   -2.3976    0.3988 N   0  0  0  0  0  0  0  0  0  0  0  0
   -1.3058   -3.1732   -0.0549 H   0  0  0  0  0  0  0  0  0  0  0  0
   -0.1905   -2.6616    1.6594 C   0  0  1  0  0  0  0  0  0  0  0  0
    0.8822   -2.4643    1.6012 H   0  0  0  0  0  0  0  0  0  0  0  0
   -0.6205   -2.0582    2.4621 H   0  0  0  0  0  0  0  0  0  0  0  0
   -0.3292   -3.7102    1.9089 H   0  0  0  0  0  0  0  0  0  0  0  0
    2.0423    0.6823   -0.4877 C   0  0  0  0  0  0  0  0  0  0  0  0
    2.6949    1.1804   -1.3794 O   0  0  0  0  0  0  0  0  0  0  0  0
    2.6633    0.2061    0.8102 C   0  0  2  0  0  0  0  0  0  0  0  0
    2.5143   -0.8642    0.9342 H   0  0  0  0  0  0  0  0  0  0  0  0
    2.2336    0.7332    1.6591 H   0  0  0  0  0  0  0  0  0  0  0  0
    3.7293    0.4106    0.7698 H   0  0  0  0  0  0  0  0  0  0  0  0
  1 21  1  0
  1  2  1  0
  2  5  1  0
  2  9  1  1
  3  2  1  0
  3 15  1  0
  4  3  2  0
  5 10  1  1
  5  7  1  0
  6  5  1  0
  7 12  1  1
  7 14  1  0
  8  1  1  0
 11  6  1  0
 13  7  1  0
 15 17  1  0
 16 15  1  0
 17 20  1  1
 17 19  1  0
 18 17  1  0
 21 23  1  0
 22 21  2  0
 23 24  1  1
 23 25  1  0
 26 23  1  0
M  END
$$$$
