-37.02667068
     RDKit          3D

 23 22  0  0  1  0  0  0  0  0999 V2000
    0.9556   -0.3276    0.4556 N   0  0  0  0  0  0  0  0  0  0  0  0
   -0.2742   -0.1136   -0.2599 C   0  0  2  0  0  0  0  0  0  0  0  0
   -0.9602    1.1312    0.3198 C   0  0  0  0  0  0  0  0  0  0  0  0
   -0.7439    1.5041    1.4519 O   0  0  0  0  0  0  0  0  0  0  0  0
   -1.2285   -1.3196   -0.0524 C   0  0  1  0  0  0  0  0  0  0  0  0
   -0.6743   -2.5179   -0.5185 O   0  0  0  0  0  0  0  0  0  0  0  0
    0.9346    0.0005    1.4162 H   0  0  0  0  0  0  0  0  0  0  0  0
   -0.0755    0.0124   -1.3273 H   0  0  0  0  0  0  0  0  0  0  0  0
   -1.4787   -1.3882    1.0146 H   0  0  0  0  0  0  0  0  0  0  0  0
   -2.1491   -1.1694   -0.6211 H   0  0  0  0  0  0  0  0  0  0  0  0
    0.1015   -2.7260    0.0172 H   0  0  0  0  0  0  0  0  0  0  0  0
   -1.8289    1.7264   -0.5181 N   0  0  0  0  0  0  0  0  0  0  0  0
   -1.9635    1.3599   -1.4467 H   0  0  0  0  0  0  0  0  0  0  0  0
   -2.6165    2.8742   -0.1324 C   0  0  1  0  0  0  0  0  0  0  0  0
   -3.6818    2.6411   -0.1714 H   0  0  0  0  0  0  0  0  0  0  0  0
   -2.3396    3.1316    0.8881 H   0  0  0  0  0  0  0  0  0  0  0  0
   -2.4087    3.7201   -0.7889 H   0  0  0  0  0  0  0  0  0  0  0  0
    2.1556   -0.7597   -0.0070 C   0  0  0  0  0  0  0  0  0  0  0  0
    3.1051   -0.8571    0.7400 O   0  0  0  0  0  0  0  0  0  0  0  0
    2.2238   -1.1183   -1.4766 C   0  0  2  0  0  0  0  0  0  0  0  0
    2.1602   -0.2109   -2.0754 H   0  0  0  0  0  0  0  0  0  0  0  0
    1.4209   -1.7919   -1.7641 H   0  0  0  0  0  0  0  0  0  0  0  0
    3.1818   -1.5928   -1.6687 H   0  0  0  0  0  0  0  0  0  0  0  0
  1  7  1  0
  2  8  1  6
  2  5  1  0
  2  3  1  0
  2  1  1  0
  3  4  2  0
  5  9  1  1
  6  5  1  0
  6 11  1  0
 10  5  1  0
 12 14  1  0
 12  3  1  0
 13 12  1  0
 14 16  1  1
 15 14  1  0
 17 14  1  0
 18  1  1  0
 18 19  2  0
 20 18  1  0
 20 21  1  6
 22 20  1  0
 23 20  1  0
M  END
$$$$
