-37.02388199
     RDKit          3D

 23 22  0  0  1  0  0  0  0  0999 V2000
    0.7873   -0.5704   -0.7968 N   0  0  0  0  0  0  0  0  0  0  0  0
   -0.6440   -0.5493   -0.5620 C   0  0  2  0  0  0  0  0  0  0  0  0
   -1.1434    0.8036   -0.0211 C   0  0  0  0  0  0  0  0  0  0  0  0
   -2.0470    0.8903    0.7814 O   0  0  0  0  0  0  0  0  0  0  0  0
   -1.1155   -1.7087    0.3388 C   0  0  1  0  0  0  0  0  0  0  0  0
   -0.8073   -2.9584   -0.2189 O   0  0  0  0  0  0  0  0  0  0  0  0
    1.0934   -0.8839   -1.7085 H   0  0  0  0  0  0  0  0  0  0  0  0
   -1.1244   -0.6864   -1.5386 H   0  0  0  0  0  0  0  0  0  0  0  0
   -0.6877   -1.6059    1.3421 H   0  0  0  0  0  0  0  0  0  0  0  0
   -2.2021   -1.6627    0.4229 H   0  0  0  0  0  0  0  0  0  0  0  0
    0.1518   -3.0513   -0.2658 H   0  0  0  0  0  0  0  0  0  0  0  0
   -0.5123    1.8627   -0.5623 N   0  0  0  0  0  0  0  0  0  0  0  0
    0.2587    1.7081   -1.1934 H   0  0  0  0  0  0  0  0  0  0  0  0
   -0.8168    3.2236   -0.1921 C   0  0  1  0  0  0  0  0  0  0  0  0
   -1.1001    3.8035   -1.0714 H   0  0  0  0  0  0  0  0  0  0  0  0
   -1.6512    3.1939    0.5065 H   0  0  0  0  0  0  0  0  0  0  0  0
    0.0425    3.6956    0.2876 H   0  0  0  0  0  0  0  0  0  0  0  0
    1.8242   -0.3477    0.0599 C   0  0  0  0  0  0  0  0  0  0  0  0
    2.9610   -0.4672   -0.3478 O   0  0  0  0  0  0  0  0  0  0  0  0
    1.5048    0.0395    1.4816 C   0  0  2  0  0  0  0  0  0  0  0  0
    2.2682    0.7324    1.8278 H   0  0  0  0  0  0  0  0  0  0  0  0
    1.5668   -0.8518    2.1047 H   0  0  0  0  0  0  0  0  0  0  0  0
    0.5222    0.4837    1.5941 H   0  0  0  0  0  0  0  0  0  0  0  0
  1  2  1  0
  1 18  1  0
  2  8  1  6
  2  3  1  0
  2  5  1  0
  3  4  2  0
  5 10  1  1
  5  9  1  0
  6  5  1  0
  7  1  1  0
 11  6  1  0
 12 14  1  0
 12  3  1  0
 13 12  1  0
 14 17  1  1
 14 16  1  0
 15 14  1  0
 18 20  1  0
 19 18  2  0
 20 23  1  6
 20 21  1  0
 20 22  1  0
M  END
$$$$
