-37.02248587
     RDKit          3D

 23 22  0  0  1  0  0  0  0  0999 V2000
    0.8602   -1.1220   -0.6879 N   0  0  0  0  0  0  0  0  0  0  0  0
   -0.5699   -0.8799   -0.6407 C   0  0  2  0  0  0  0  0  0  0  0  0
   -0.9228    0.6220   -0.6964 C   0  0  0  0  0  0  0  0  0  0  0  0
   -0.7546    1.2526   -1.7184 O   0  0  0  0  0  0  0  0  0  0  0  0
   -1.2022   -1.6574    0.5336 C   0  0  1  0  0  0  0  0  0  0  0  0
   -0.7354   -1.2382    1.7956 O   0  0  0  0  0  0  0  0  0  0  0  0
    1.1325   -1.9706   -1.1678 H   0  0  0  0  0  0  0  0  0  0  0  0
   -0.9889   -1.2930   -1.5673 H   0  0  0  0  0  0  0  0  0  0  0  0
   -2.2842   -1.5074    0.5392 H   0  0  0  0  0  0  0  0  0  0  0  0
   -1.0027   -2.7278    0.3916 H   0  0  0  0  0  0  0  0  0  0  0  0
    0.2043   -1.4487    1.8606 H   0  0  0  0  0  0  0  0  0  0  0  0
   -1.4594    1.1352    0.4227 N   0  0  0  0  0  0  0  0  0  0  0  0
   -1.4980    0.5768    1.2637 H   0  0  0  0  0  0  0  0  0  0  0  0
   -1.8521    2.5200    0.5188 C   0  0  1  0  0  0  0  0  0  0  0  0
   -1.7446    2.9663   -0.4685 H   0  0  0  0  0  0  0  0  0  0  0  0
   -2.8910    2.5963    0.8417 H   0  0  0  0  0  0  0  0  0  0  0  0
   -1.2174    3.0556    1.2276 H   0  0  0  0  0  0  0  0  0  0  0  0
    1.9312   -0.4788   -0.1477 C   0  0  0  0  0  0  0  0  0  0  0  0
    3.0276   -0.9913   -0.2433 O   0  0  0  0  0  0  0  0  0  0  0  0
    1.7097    0.8442    0.5409 C   0  0  2  0  0  0  0  0  0  0  0  0
    0.9876    0.7633    1.3485 H   0  0  0  0  0  0  0  0  0  0  0  0
    1.3566    1.5758   -0.1819 H   0  0  0  0  0  0  0  0  0  0  0  0
    2.6633    1.1772    0.9426 H   0  0  0  0  0  0  0  0  0  0  0  0
  1  2  1  0
  1 18  1  0
  2  8  1  6
  2  5  1  0
  3  2  1  0
  3 12  1  0
  4  3  2  0
  5  9  1  1
  5  6  1  0
  6 11  1  0
  7  1  1  0
 10  5  1  0
 12 14  1  0
 12 13  1  0
 14 16  1  1
 14 17  1  0
 15 14  1  0
 18 20  1  0
 19 18  2  0
 20 23  1  1
 20 21  1  0
 22 20  1  0
M  END
$$$$
