-37.02244581
     RDKit          3D

 23 22  0  0  1  0  0  0  0  0999 V2000
    1.0497   -0.8796   -0.8367 N   0  0  0  0  0  0  0  0  0  0  0  0
   -0.3332   -0.6861   -0.4734 C   0  0  2  0  0  0  0  0  0  0  0  0
   -0.7073    0.8144   -0.3858 C   0  0  0  0  0  0  0  0  0  0  0  0
    0.0159    1.6849   -0.8169 O   0  0  0  0  0  0  0  0  0  0  0  0
   -0.7244   -1.4729    0.7992 C   0  0  1  0  0  0  0  0  0  0  0  0
   -2.1066   -1.7501    0.8440 O   0  0  0  0  0  0  0  0  0  0  0  0
    1.2275   -1.1453   -1.7954 H   0  0  0  0  0  0  0  0  0  0  0  0
   -0.9327   -1.0937   -1.2992 H   0  0  0  0  0  0  0  0  0  0  0  0
   -0.1360   -2.3977    0.8357 H   0  0  0  0  0  0  0  0  0  0  0  0
   -0.5193   -0.8912    1.6992 H   0  0  0  0  0  0  0  0  0  0  0  0
   -2.3257   -2.4050    0.1715 H   0  0  0  0  0  0  0  0  0  0  0  0
   -1.9122    1.0323    0.1691 N   0  0  0  0  0  0  0  0  0  0  0  0
   -2.4405    0.2525    0.5361 H   0  0  0  0  0  0  0  0  0  0  0  0
   -2.4555    2.3585    0.3376 C   0  0  1  0  0  0  0  0  0  0  0  0
   -1.7522    3.0631   -0.1033 H   0  0  0  0  0  0  0  0  0  0  0  0
   -3.4187    2.4430   -0.1678 H   0  0  0  0  0  0  0  0  0  0  0  0
   -2.5861    2.5911    1.3960 H   0  0  0  0  0  0  0  0  0  0  0  0
    2.1873   -0.4673   -0.2061 C   0  0  0  0  0  0  0  0  0  0  0  0
    3.2558   -0.6200   -0.7561 O   0  0  0  0  0  0  0  0  0  0  0  0
    2.0551    0.0951    1.1871 C   0  0  2  0  0  0  0  0  0  0  0  0
    1.7971   -0.6964    1.8867 H   0  0  0  0  0  0  0  0  0  0  0  0
    1.2989    0.8729    1.2184 H   0  0  0  0  0  0  0  0  0  0  0  0
    3.0154    0.5152    1.4732 H   0  0  0  0  0  0  0  0  0  0  0  0
  1  2  1  0
  1 18  1  0
  2  8  1  6
  2  3  1  0
  2  5  1  0
  3 12  1  0
  4  3  2  0
  5  9  1  1
  5  6  1  0
  5 10  1  0
  7  1  1  0
 11  6  1  0
 12 14  1  0
 12 13  1  0
 14 17  1  1
 15 14  1  0
 16 14  1  0
 18 20  1  0
 19 18  2  0
 20 22  1  6
 20 23  1  0
 20 21  1  0
M  END
$$$$
