-37.02732895
     RDKit          3D

 23 22  0  0  1  0  0  0  0  0999 V2000
    1.2401   -0.1393    0.4159 N   0  0  0  0  0  0  0  0  0  0  0  0
   -0.0577   -0.2156   -0.1873 C   0  0  2  0  0  0  0  0  0  0  0  0
   -0.8683    1.0104    0.2762 C   0  0  0  0  0  0  0  0  0  0  0  0
   -0.4638    1.7458    1.1518 O   0  0  0  0  0  0  0  0  0  0  0  0
   -0.8102   -1.4972    0.2356 C   0  0  1  0  0  0  0  0  0  0  0  0
   -1.9118   -1.6691   -0.6316 O   0  0  0  0  0  0  0  0  0  0  0  0
    1.2754    0.4530    1.2409 H   0  0  0  0  0  0  0  0  0  0  0  0
    0.0093   -0.2108   -1.2808 H   0  0  0  0  0  0  0  0  0  0  0  0
   -0.1260   -2.3530    0.1699 H   0  0  0  0  0  0  0  0  0  0  0  0
   -1.1407   -1.4003    1.2783 H   0  0  0  0  0  0  0  0  0  0  0  0
   -2.3918   -2.4640   -0.3774 H   0  0  0  0  0  0  0  0  0  0  0  0
   -2.0314    1.1608   -0.3750 N   0  0  0  0  0  0  0  0  0  0  0  0
   -2.3309    0.4233   -0.9963 H   0  0  0  0  0  0  0  0  0  0  0  0
   -2.9762    2.1997   -0.0429 C   0  0  1  0  0  0  0  0  0  0  0  0
   -3.8797    1.7800    0.4041 H   0  0  0  0  0  0  0  0  0  0  0  0
   -2.4972    2.8656    0.6729 H   0  0  0  0  0  0  0  0  0  0  0  0
   -3.2479    2.7614   -0.9373 H   0  0  0  0  0  0  0  0  0  0  0  0
    2.4248   -0.6135   -0.0390 C   0  0  0  0  0  0  0  0  0  0  0  0
    3.4481   -0.4371    0.5852 O   0  0  0  0  0  0  0  0  0  0  0  0
    2.3842   -1.3630   -1.3546 C   0  0  2  0  0  0  0  0  0  0  0  0
    2.1228   -0.6775   -2.1587 H   0  0  0  0  0  0  0  0  0  0  0  0
    1.6576   -2.1701   -1.3305 H   0  0  0  0  0  0  0  0  0  0  0  0
    3.3717   -1.7712   -1.5491 H   0  0  0  0  0  0  0  0  0  0  0  0
  1  7  1  0
  2  8  1  6
  2  5  1  0
  2  3  1  0
  2  1  1  0
  3  4  2  0
  5 10  1  1
  6 11  1  0
  6  5  1  0
  9  5  1  0
 12 14  1  0
 12  3  1  0
 13 12  1  0
 14 15  1  1
 14 16  1  0
 17 14  1  0
 18  1  1  0
 18 19  2  0
 20 22  1  1
 20 18  1  0
 21 20  1  0
 23 20  1  0
M  END
$$$$
