 energy: -51.929885774857 gnorm: 0.000027772508 xtb: 6.5.1 (9af7eec)
     RDKit          3D

 33 33  0  0  0  0  0  0  0  0999 V2000
   -3.5177    0.0529    0.2873 N   0  0  0  0  0  0  0  0  0  0  0  0
   -2.6159    0.0312   -0.8581 C   0  0  2  0  0  0  0  0  0  0  0  0
   -2.8368   -1.1734   -1.7968 C   0  0  0  0  0  0  0  0  0  0  0  0
   -3.0746   -1.0025   -2.9766 O   0  0  0  0  0  0  0  0  0  0  0  0
   -1.1388    0.1034   -0.4204 C   0  0  1  0  0  0  0  0  0  0  0  0
   -0.9085    1.3255    0.4226 C   0  0  0  0  0  0  0  0  0  0  0  0
   -0.8413    1.2304    1.8053 C   0  0  0  0  0  0  0  0  0  0  0  0
   -0.8120    2.5836   -0.1631 C   0  0  0  0  0  0  0  0  0  0  0  0
   -0.6805    2.3601    2.5878 C   0  0  0  0  0  0  0  0  0  0  0  0
   -0.6510    3.7170    0.6068 C   0  0  0  0  0  0  0  0  0  0  0  0
   -0.5851    3.6116    1.9932 C   0  0  0  0  0  0  0  0  0  0  0  0
   -0.4292    4.7513    2.7208 O   0  0  0  0  0  0  0  0  0  0  0  0
   -4.1553    0.8318    0.3213 H   0  0  0  0  0  0  0  0  0  0  0  0
   -2.8481    0.9203   -1.4518 H   0  0  0  0  0  0  0  0  0  0  0  0
   -0.8844   -0.7923    0.1453 H   0  0  0  0  0  0  0  0  0  0  0  0
   -0.5255    0.1368   -1.3223 H   0  0  0  0  0  0  0  0  0  0  0  0
   -0.9102    0.2622    2.2792 H   0  0  0  0  0  0  0  0  0  0  0  0
   -0.8572    2.6743   -1.2387 H   0  0  0  0  0  0  0  0  0  0  0  0
   -0.6245    2.2702    3.6651 H   0  0  0  0  0  0  0  0  0  0  0  0
   -0.5708    4.6937    0.1570 H   0  0  0  0  0  0  0  0  0  0  0  0
   -0.3734    4.5355    3.6594 H   0  0  0  0  0  0  0  0  0  0  0  0
   -2.7035   -2.3673   -1.2094 N   0  0  0  0  0  0  0  0  0  0  0  0
   -2.5480   -2.4067   -0.2042 H   0  0  0  0  0  0  0  0  0  0  0  0
   -2.8669   -3.6057   -1.9289 C   0  0  1  0  0  0  0  0  0  0  0  0
   -3.7121   -4.1721   -1.5331 H   0  0  0  0  0  0  0  0  0  0  0  0
   -3.0495   -3.3659   -2.9754 H   0  0  0  0  0  0  0  0  0  0  0  0
   -1.9636   -4.2123   -1.8467 H   0  0  0  0  0  0  0  0  0  0  0  0
   -3.4617   -0.7337    1.3799 C   0  0  0  0  0  0  0  0  0  0  0  0
   -2.7336   -1.7069    1.4834 O   0  0  0  0  0  0  0  0  0  0  0  0
   -4.4087   -0.3065    2.4789 C   0  0  2  0  0  0  0  0  0  0  0  0
   -4.3494   -1.0157    3.2995 H   0  0  0  0  0  0  0  0  0  0  0  0
   -5.4300   -0.2722    2.1063 H   0  0  0  0  0  0  0  0  0  0  0  0
   -4.1324    0.6826    2.8391 H   0  0  0  0  0  0  0  0  0  0  0  0
  1 13  1  0
  1 28  1  0
  1  2  1  0
  2  5  1  0
  2  3  1  0
  2 14  1  6
  3  4  1  0
  3 22  1  0
  5 16  1  6
  5 15  1  0
  5  6  1  0
  6  8  1  0
  6  7  1  0
  7 17  1  0
  7  9  1  0
  8 18  1  0
  8 10  1  0
  9 11  1  0
  9 19  1  0
 10 20  1  0
 10 11  1  0
 11 12  1  0
 12 21  1  0
 22 24  1  0
 22 23  1  0
 24 27  1  6
 24 25  1  0
 24 26  1  0
 28 30  1  0
 28 29  1  0
 30 31  1  1
 30 32  1  0
 30 33  1  0
M  END
$$$$
