 energy: -51.928582290840 gnorm: 0.000034895426 xtb: 6.5.1 (9af7eec)
     RDKit          3D

 33 33  0  0  0  0  0  0  0  0999 V2000
   -1.8847   -1.1057   -1.3281 N   0  0  0  0  0  0  0  0  0  0  0  0
   -0.7736   -1.0577   -0.4148 C   0  0  2  0  0  0  0  0  0  0  0  0
    0.1554   -2.2320   -0.7209 C   0  0  0  0  0  0  0  0  0  0  0  0
   -0.2488   -3.2436   -1.2574 O   0  0  0  0  0  0  0  0  0  0  0  0
   -1.2612   -1.1750    1.0522 C   0  0  1  0  0  0  0  0  0  0  0  0
   -2.2905   -0.1152    1.3184 C   0  0  1  0  0  0  0  0  0  0  0  0
   -1.9083    1.1790    1.6399 C   0  0  0  0  0  0  0  0  0  0  0  0
   -3.6428   -0.3898    1.1591 C   0  0  0  0  0  0  0  0  0  0  0  0
   -2.8503    2.1765    1.7987 C   0  0  0  0  0  0  0  0  0  0  0  0
   -4.5935    0.5981    1.3159 C   0  0  0  0  0  0  0  0  0  0  0  0
   -4.2000    1.8941    1.6304 C   0  0  0  0  0  0  0  0  0  0  0  0
   -5.1625    2.8457    1.7703 O   0  0  0  0  0  0  0  0  0  0  0  0
   -2.1943   -2.0324   -1.5830 H   0  0  0  0  0  0  0  0  0  0  0  0
   -0.2772   -0.0921   -0.5590 H   0  0  0  0  0  0  0  0  0  0  0  0
   -1.6922   -2.1678    1.1952 H   0  0  0  0  0  0  0  0  0  0  0  0
   -0.4063   -1.0646    1.7217 H   0  0  0  0  0  0  0  0  0  0  0  0
   -0.8614    1.4156    1.7621 H   0  0  0  0  0  0  0  0  0  0  0  0
   -3.9570   -1.3926    0.9072 H   0  0  0  0  0  0  0  0  0  0  0  0
   -2.5381    3.1838    2.0413 H   0  0  0  0  0  0  0  0  0  0  0  0
   -5.6442    0.3903    1.1900 H   0  0  0  0  0  0  0  0  0  0  0  0
   -4.7504    3.7005    1.9440 H   0  0  0  0  0  0  0  0  0  0  0  0
    1.4245   -2.0592   -0.3058 N   0  0  0  0  0  0  0  0  0  0  0  0
    1.6960   -1.1814    0.1070 H   0  0  0  0  0  0  0  0  0  0  0  0
    2.4430   -3.0691   -0.4669 C   0  0  1  0  0  0  0  0  0  0  0  0
    3.2517   -2.7054   -1.1030 H   0  0  0  0  0  0  0  0  0  0  0  0
    2.8515   -3.3616    0.5019 H   0  0  0  0  0  0  0  0  0  0  0  0
    1.9739   -3.9313   -0.9374 H   0  0  0  0  0  0  0  0  0  0  0  0
   -2.4011   -0.0004   -1.9107 C   0  0  0  0  0  0  0  0  0  0  0  0
   -1.9685    1.1130   -1.6994 O   0  0  0  0  0  0  0  0  0  0  0  0
   -3.5676   -0.2922   -2.8288 C   0  0  2  0  0  0  0  0  0  0  0  0
   -3.8532    0.6181   -3.3472 H   0  0  0  0  0  0  0  0  0  0  0  0
   -4.4109   -0.6430   -2.2378 H   0  0  0  0  0  0  0  0  0  0  0  0
   -3.3018   -1.0580   -3.5531 H   0  0  0  0  0  0  0  0  0  0  0  0
  1 13  1  0
  1 28  1  0
  1  2  1  0
  2  5  1  0
  2  3  1  0
  2 14  1  1
  3  4  1  0
  3 22  1  0
  5 16  1  1
  5 15  1  0
  5  6  1  0
  6  8  1  6
  6  7  1  0
  7 17  1  0
  7  9  1  0
  8 18  1  0
  8 10  1  0
  9 11  1  0
  9 19  1  0
 10 20  1  0
 10 11  1  0
 11 12  1  0
 12 21  1  0
 22 24  1  0
 22 23  1  0
 24 27  1  6
 24 25  1  0
 24 26  1  0
 28 30  1  0
 28 29  1  0
 30 31  1  6
 30 32  1  0
 30 33  1  0
M  END
$$$$
