-43.65934415
     RDKit          3D

 27 28  0  0  1  0  0  0  0  0999 V2000
   -4.0599   -0.5755    0.2558 C   0  0  0  0  0  0  0  0  0  0  0  0
   -3.3239   -1.6464   -0.2597 C   0  0  0  0  0  0  0  0  0  0  0  0
   -3.4733    0.6490    0.4909 C   0  0  0  0  0  0  0  0  0  0  0  0
   -1.9849   -1.5213   -0.5528 C   0  0  0  0  0  0  0  0  0  0  0  0
   -1.3631   -0.2939   -0.3239 C   0  0  0  0  0  0  0  0  0  0  0  0
   -2.1219    0.7815    0.1977 C   0  0  0  0  0  0  0  0  0  0  0  0
   -1.2847    1.8501    0.3236 N   0  0  0  0  0  0  0  0  0  0  0  0
   -0.0310    1.4902   -0.0965 C   0  0  0  0  0  0  0  0  0  0  0  0
   -0.0273    0.1872   -0.5003 C   0  0  0  0  0  0  0  0  0  0  0  0
    1.1052   -0.6294   -1.0341 C   0  0  1  0  0  0  0  0  0  0  0  0
    2.4809    0.0050   -0.8033 C   0  0  2  0  0  0  0  0  0  0  0  0
    3.5046   -0.8474   -1.3868 N   0  0  0  0  0  0  0  0  0  0  0  0
    2.7044    0.2218    0.6894 C   0  0  0  0  0  0  0  0  0  0  0  0
    2.7206   -0.9336    1.3677 O   0  0  0  0  0  0  0  0  0  0  0  0
    2.8992    1.2828    1.2220 O   0  0  0  0  0  0  0  0  0  0  0  0
    1.0919   -1.6136   -0.5574 H   0  0  0  0  0  0  0  0  0  0  0  0
    0.9858   -0.7842   -2.1101 H   0  0  0  0  0  0  0  0  0  0  0  0
    2.5332    0.9809   -1.2964 H   0  0  0  0  0  0  0  0  0  0  0  0
    0.7724    2.1995   -0.0602 H   0  0  0  0  0  0  0  0  0  0  0  0
   -1.5378    2.7564    0.6773 H   0  0  0  0  0  0  0  0  0  0  0  0
   -1.4249   -2.3533   -0.9531 H   0  0  0  0  0  0  0  0  0  0  0  0
   -4.0410    1.4774    0.8891 H   0  0  0  0  0  0  0  0  0  0  0  0
   -3.8236   -2.5890   -0.4293 H   0  0  0  0  0  0  0  0  0  0  0  0
    3.4959   -1.7569   -0.9363 H   0  0  0  0  0  0  0  0  0  0  0  0
    4.4253   -0.4407   -1.2617 H   0  0  0  0  0  0  0  0  0  0  0  0
   -5.1087   -0.7143    0.4731 H   0  0  0  0  0  0  0  0  0  0  0  0
    2.8711   -0.7688    2.3114 H   0  0  0  0  0  0  0  0  0  0  0  0
  1 26  1  0
  1  3  1  0
  2  1  2  0
  3 22  1  0
  4  5  2  0
  4  2  1  0
  5  6  1  0
  6  7  1  0
  6  3  2  0
  7 20  1  0
  8 19  1  0
  8  7  1  0
  9  5  1  0
  9  8  2  0
 10 11  1  0
 10 16  1  1
 10  9  1  0
 11 18  1  6
 11 13  1  0
 12 25  1  0
 12 24  1  0
 12 11  1  0
 13 15  2  0
 13 14  1  0
 14 27  1  0
 17 10  1  0
 21  4  1  0
 23  2  1  0
M  END
$$$$
