-43.65867663
     RDKit          3D

 27 28  0  0  1  0  0  0  0  0999 V2000
   -4.2125   -0.3456    0.5919 C   0  0  0  0  0  0  0  0  0  0  0  0
   -3.4234   -1.0032    1.5401 C   0  0  0  0  0  0  0  0  0  0  0  0
   -3.6445    0.4076   -0.4122 C   0  0  0  0  0  0  0  0  0  0  0  0
   -2.0498   -0.9246    1.5101 C   0  0  0  0  0  0  0  0  0  0  0  0
   -1.4446   -0.1695    0.5051 C   0  0  0  0  0  0  0  0  0  0  0  0
   -2.2582    0.4901   -0.4476 C   0  0  0  0  0  0  0  0  0  0  0  0
   -1.4312    1.1506   -1.3076 N   0  0  0  0  0  0  0  0  0  0  0  0
   -0.1322    0.9344   -0.9309 C   0  0  0  0  0  0  0  0  0  0  0  0
   -0.0865    0.1313    0.1712 C   0  0  0  0  0  0  0  0  0  0  0  0
    1.1176   -0.3471    0.9136 C   0  0  1  0  0  0  0  0  0  0  0  0
    2.2569   -0.8079   -0.0058 C   0  0  2  0  0  0  0  0  0  0  0  0
    3.1789   -1.6317    0.7660 N   0  0  0  0  0  0  0  0  0  0  0  0
    3.0109    0.3860   -0.5718 C   0  0  0  0  0  0  0  0  0  0  0  0
    3.1472    0.3273   -1.9046 O   0  0  0  0  0  0  0  0  0  0  0  0
    3.5143    1.2572    0.0884 O   0  0  0  0  0  0  0  0  0  0  0  0
    1.5030    0.4443    1.5649 H   0  0  0  0  0  0  0  0  0  0  0  0
    0.8425   -1.1964    1.5395 H   0  0  0  0  0  0  0  0  0  0  0  0
    1.8648   -1.4082   -0.8320 H   0  0  0  0  0  0  0  0  0  0  0  0
    0.6710    1.3748   -1.4891 H   0  0  0  0  0  0  0  0  0  0  0  0
   -1.7251    1.7065   -2.0919 H   0  0  0  0  0  0  0  0  0  0  0  0
   -1.4517   -1.4357    2.2496 H   0  0  0  0  0  0  0  0  0  0  0  0
   -4.2521    0.9173   -1.1458 H   0  0  0  0  0  0  0  0  0  0  0  0
   -3.9097   -1.5830    2.3109 H   0  0  0  0  0  0  0  0  0  0  0  0
    3.5798   -1.0789    1.5178 H   0  0  0  0  0  0  0  0  0  0  0  0
    3.9383   -1.9678    0.1832 H   0  0  0  0  0  0  0  0  0  0  0  0
   -5.2875   -0.4314    0.6510 H   0  0  0  0  0  0  0  0  0  0  0  0
    3.6858    1.0690   -2.2266 H   0  0  0  0  0  0  0  0  0  0  0  0
  1 26  1  0
  1  2  2  0
  2 23  1  0
  3  1  1  0
  4  2  1  0
  4 21  1  0
  5  4  2  0
  6  3  2  0
  6  5  1  0
  7  8  1  0
  7  6  1  0
  8  9  2  0
  9  5  1  0
  9 10  1  0
 10 17  1  1
 10 16  1  0
 11 18  1  6
 11 12  1  0
 11 10  1  0
 12 24  1  0
 13 11  1  0
 13 15  2  0
 14 13  1  0
 19  8  1  0
 20  7  1  0
 22  3  1  0
 25 12  1  0
 27 14  1  0
M  END
$$$$
