-43.65835126
     RDKit          3D

 27 28  0  0  1  0  0  0  0  0999 V2000
   -4.2571   -0.2431    0.3556 C   0  0  0  0  0  0  0  0  0  0  0  0
   -3.4897   -1.3685    0.0418 C   0  0  0  0  0  0  0  0  0  0  0  0
   -3.6860    1.0072    0.4511 C   0  0  0  0  0  0  0  0  0  0  0  0
   -2.1357   -1.2734   -0.1861 C   0  0  0  0  0  0  0  0  0  0  0  0
   -1.5282   -0.0208   -0.0973 C   0  0  0  0  0  0  0  0  0  0  0  0
   -2.3195    1.1097    0.2234 C   0  0  0  0  0  0  0  0  0  0  0  0
   -1.4948    2.1960    0.2475 N   0  0  0  0  0  0  0  0  0  0  0  0
   -0.2196    1.7963   -0.0483 C   0  0  0  0  0  0  0  0  0  0  0  0
   -0.1886    0.4497   -0.2646 C   0  0  0  0  0  0  0  0  0  0  0  0
    0.9972   -0.3879   -0.6168 C   0  0  1  0  0  0  0  0  0  0  0  0
    2.2456   -0.0285    0.2125 C   0  0  2  0  0  0  0  0  0  0  0  0
    2.7554    1.2763   -0.1540 N   0  0  0  0  0  0  0  0  0  0  0  0
    3.2478   -1.1691    0.0614 C   0  0  0  0  0  0  0  0  0  0  0  0
    4.3938   -0.7771   -0.5176 O   0  0  0  0  0  0  0  0  0  0  0  0
    3.0582   -2.3059    0.4022 O   0  0  0  0  0  0  0  0  0  0  0  0
    0.7597   -1.4376   -0.4385 H   0  0  0  0  0  0  0  0  0  0  0  0
    1.2408   -0.2692   -1.6781 H   0  0  0  0  0  0  0  0  0  0  0  0
    1.9555    0.0025    1.2704 H   0  0  0  0  0  0  0  0  0  0  0  0
    0.5945    2.4930   -0.0730 H   0  0  0  0  0  0  0  0  0  0  0  0
   -1.7759    3.1391    0.4533 H   0  0  0  0  0  0  0  0  0  0  0  0
   -1.5544   -2.1509   -0.4278 H   0  0  0  0  0  0  0  0  0  0  0  0
   -4.2773    1.8784    0.6940 H   0  0  0  0  0  0  0  0  0  0  0  0
   -3.9770   -2.3306   -0.0219 H   0  0  0  0  0  0  0  0  0  0  0  0
    3.0216    1.2826   -1.1334 H   0  0  0  0  0  0  0  0  0  0  0  0
    3.5831    1.4987    0.3883 H   0  0  0  0  0  0  0  0  0  0  0  0
   -5.3172   -0.3597    0.5262 H   0  0  0  0  0  0  0  0  0  0  0  0
    4.9975   -1.5309   -0.6072 H   0  0  0  0  0  0  0  0  0  0  0  0
  1  3  1  0
  1 26  1  0
  2  1  2  0
  3 22  1  0
  4  5  2  0
  4  2  1  0
  5  6  1  0
  6  7  1  0
  6  3  2  0
  7 20  1  0
  8  7  1  0
  9  5  1  0
  9  8  2  0
 10 16  1  6
 10  9  1  0
 10 11  1  0
 11 18  1  1
 12 11  1  0
 12 25  1  0
 13 11  1  0
 13 15  2  0
 14 13  1  0
 17 10  1  0
 19  8  1  0
 21  4  1  0
 23  2  1  0
 24 12  1  0
 27 14  1  0
M  END
$$$$
