-43.65795689
     RDKit          3D

 27 28  0  0  1  0  0  0  0  0999 V2000
   -3.9731   -0.5680    0.2131 C   0  0  0  0  0  0  0  0  0  0  0  0
   -2.9891   -1.4514    0.6665 C   0  0  0  0  0  0  0  0  0  0  0  0
   -3.6551    0.7110   -0.1893 C   0  0  0  0  0  0  0  0  0  0  0  0
   -1.6652   -1.0810    0.7342 C   0  0  0  0  0  0  0  0  0  0  0  0
   -1.3141    0.2092    0.3385 C   0  0  0  0  0  0  0  0  0  0  0  0
   -2.3207    1.0915   -0.1235 C   0  0  0  0  0  0  0  0  0  0  0  0
   -1.7191    2.2721   -0.4515 N   0  0  0  0  0  0  0  0  0  0  0  0
   -0.3758    2.1662   -0.2099 C   0  0  0  0  0  0  0  0  0  0  0  0
   -0.0788    0.9270    0.2774 C   0  0  0  0  0  0  0  0  0  0  0  0
    1.2784    0.4364    0.6561 C   0  0  1  0  0  0  0  0  0  0  0  0
    1.8261   -0.6178   -0.3328 C   0  0  2  0  0  0  0  0  0  0  0  0
    1.3676   -1.9441    0.0176 N   0  0  0  0  0  0  0  0  0  0  0  0
    3.3442   -0.4773   -0.4256 C   0  0  0  0  0  0  0  0  0  0  0  0
    3.9762   -1.6573   -0.3305 O   0  0  0  0  0  0  0  0  0  0  0  0
    3.9382    0.5574   -0.5726 O   0  0  0  0  0  0  0  0  0  0  0  0
    1.9666    1.2833    0.6703 H   0  0  0  0  0  0  0  0  0  0  0  0
    1.2501   -0.0132    1.6512 H   0  0  0  0  0  0  0  0  0  0  0  0
    1.4403   -0.3795   -1.3331 H   0  0  0  0  0  0  0  0  0  0  0  0
    0.2827    2.9926   -0.3992 H   0  0  0  0  0  0  0  0  0  0  0  0
   -2.1863    3.0898   -0.8035 H   0  0  0  0  0  0  0  0  0  0  0  0
   -0.9042   -1.7698    1.0638 H   0  0  0  0  0  0  0  0  0  0  0  0
   -4.4132    1.3945   -0.5440 H   0  0  0  0  0  0  0  0  0  0  0  0
   -3.2826   -2.4468    0.9671 H   0  0  0  0  0  0  0  0  0  0  0  0
    1.7891   -2.2416    0.8916 H   0  0  0  0  0  0  0  0  0  0  0  0
    1.6281   -2.6170   -0.6939 H   0  0  0  0  0  0  0  0  0  0  0  0
   -5.0012   -0.8977    0.1757 H   0  0  0  0  0  0  0  0  0  0  0  0
    4.9351   -1.5302   -0.4026 H   0  0  0  0  0  0  0  0  0  0  0  0
  1  2  2  0
  2  4  1  0
  2 23  1  0
  3  6  2  0
  3  1  1  0
  4 21  1  0
  5  4  2  0
  6  5  1  0
  7  8  1  0
  7  6  1  0
  8  9  2  0
  9  5  1  0
  9 10  1  0
 10 16  1  1
 10 17  1  0
 11 18  1  6
 11 12  1  0
 11 10  1  0
 12 24  1  0
 13 11  1  0
 13 14  1  0
 15 13  2  0
 19  8  1  0
 20  7  1  0
 22  3  1  0
 25 12  1  0
 26  1  1  0
 27 14  1  0
M  END
$$$$
