-43.66307853
     RDKit          3D

 27 28  0  0  1  0  0  0  0  0999 V2000
   -3.3569   -1.0622   -0.1956 C   0  0  0  0  0  0  0  0  0  0  0  0
   -2.3295   -1.4917   -1.0407 C   0  0  0  0  0  0  0  0  0  0  0  0
   -3.2095    0.0527    0.6007 C   0  0  0  0  0  0  0  0  0  0  0  0
   -1.1304   -0.8193   -1.1121 C   0  0  0  0  0  0  0  0  0  0  0  0
   -0.9496    0.3105   -0.3135 C   0  0  0  0  0  0  0  0  0  0  0  0
   -2.0005    0.7337    0.5361 C   0  0  0  0  0  0  0  0  0  0  0  0
   -1.5728    1.8474    1.1978 N   0  0  0  0  0  0  0  0  0  0  0  0
   -0.2954    2.1368    0.8021 C   0  0  0  0  0  0  0  0  0  0  0  0
    0.1295    1.2290   -0.1236 C   0  0  0  0  0  0  0  0  0  0  0  0
    1.4696    1.1679   -0.7727 C   0  0  1  0  0  0  0  0  0  0  0  0
    2.4809    0.3390    0.0543 C   0  0  2  0  0  0  0  0  0  0  0  0
    3.7803    0.4081   -0.5858 N   0  0  0  0  0  0  0  0  0  0  0  0
    1.9532   -1.0848    0.1554 C   0  0  0  0  0  0  0  0  0  0  0  0
    1.1868   -1.2749    1.2317 O   0  0  0  0  0  0  0  0  0  0  0  0
    2.1978   -1.9554   -0.6393 O   0  0  0  0  0  0  0  0  0  0  0  0
    1.3866    0.7178   -1.7639 H   0  0  0  0  0  0  0  0  0  0  0  0
    1.8905    2.1680   -0.8814 H   0  0  0  0  0  0  0  0  0  0  0  0
    2.5500    0.7601    1.0617 H   0  0  0  0  0  0  0  0  0  0  0  0
    0.2260    2.9829    1.2077 H   0  0  0  0  0  0  0  0  0  0  0  0
   -2.1064    2.3680    1.8723 H   0  0  0  0  0  0  0  0  0  0  0  0
   -0.3439   -1.1627   -1.7679 H   0  0  0  0  0  0  0  0  0  0  0  0
   -4.0034    0.3869    1.2527 H   0  0  0  0  0  0  0  0  0  0  0  0
   -2.4870   -2.3701   -1.6494 H   0  0  0  0  0  0  0  0  0  0  0  0
    3.7350   -0.0718   -1.4804 H   0  0  0  0  0  0  0  0  0  0  0  0
    4.4779   -0.0703   -0.0252 H   0  0  0  0  0  0  0  0  0  0  0  0
   -4.2833   -1.6170   -0.1700 H   0  0  0  0  0  0  0  0  0  0  0  0
    0.8136   -2.1712    1.2325 H   0  0  0  0  0  0  0  0  0  0  0  0
  1 26  1  0
  1  3  2  0
  2  1  1  0
  3 22  1  0
  4  2  2  0
  4  5  1  0
  5  9  1  0
  5  6  2  0
  6  3  1  0
  6  7  1  0
  7 20  1  0
  8  7  1  0
  8 19  1  0
  9  8  2  0
 10  9  1  0
 10 11  1  0
 11 13  1  0
 11 18  1  1
 12 25  1  0
 12 11  1  0
 13 14  1  0
 14 27  1  0
 15 13  2  0
 10 16  1  6
 17 10  1  0
 21  4  1  0
 23  2  1  0
 24 12  1  0
M  END
$$$$
