-43.65513356
     RDKit          3D

 27 28  0  0  1  0  0  0  0  0999 V2000
   -3.8473   -0.6080    0.0434 C   0  0  0  0  0  0  0  0  0  0  0  0
   -3.1201   -1.4060    0.9311 C   0  0  0  0  0  0  0  0  0  0  0  0
   -3.2630    0.4629   -0.5974 C   0  0  0  0  0  0  0  0  0  0  0  0
   -1.7947   -1.1535    1.2029 C   0  0  0  0  0  0  0  0  0  0  0  0
   -1.1753   -0.0755    0.5709 C   0  0  0  0  0  0  0  0  0  0  0  0
   -1.9253    0.7219   -0.3282 C   0  0  0  0  0  0  0  0  0  0  0  0
   -1.0958    1.6939   -0.8064 N   0  0  0  0  0  0  0  0  0  0  0  0
    0.1426    1.5431   -0.2420 C   0  0  0  0  0  0  0  0  0  0  0  0
    0.1441    0.4737    0.6050 C   0  0  0  0  0  0  0  0  0  0  0  0
    1.2911   -0.0470    1.4113 C   0  0  1  0  0  0  0  0  0  0  0  0
    2.6125   -0.0494    0.6166 C   0  0  2  0  0  0  0  0  0  0  0  0
    3.0639    1.3046    0.3678 N   0  0  0  0  0  0  0  0  0  0  0  0
    2.3672   -0.8087   -0.6753 C   0  0  0  0  0  0  0  0  0  0  0  0
    2.6046   -0.0910   -1.7759 O   0  0  0  0  0  0  0  0  0  0  0  0
    2.0119   -1.9561   -0.7197 O   0  0  0  0  0  0  0  0  0  0  0  0
    1.4317    0.5581    2.3122 H   0  0  0  0  0  0  0  0  0  0  0  0
    1.0733   -1.0711    1.7155 H   0  0  0  0  0  0  0  0  0  0  0  0
    3.3459   -0.6565    1.1848 H   0  0  0  0  0  0  0  0  0  0  0  0
    0.9553    2.1959   -0.4906 H   0  0  0  0  0  0  0  0  0  0  0  0
   -1.3510    2.4085   -1.4658 H   0  0  0  0  0  0  0  0  0  0  0  0
   -1.2439   -1.7790    1.8895 H   0  0  0  0  0  0  0  0  0  0  0  0
   -3.8228    1.0804   -1.2852 H   0  0  0  0  0  0  0  0  0  0  0  0
   -3.6159   -2.2376    1.4104 H   0  0  0  0  0  0  0  0  0  0  0  0
    3.8603    1.3143   -0.2578 H   0  0  0  0  0  0  0  0  0  0  0  0
    3.3255    1.7515    1.2387 H   0  0  0  0  0  0  0  0  0  0  0  0
   -4.8860   -0.8387   -0.1424 H   0  0  0  0  0  0  0  0  0  0  0  0
    2.4002   -0.6202   -2.5634 H   0  0  0  0  0  0  0  0  0  0  0  0
  1  2  2  0
  2  4  1  0
  2 23  1  0
  3  6  2  0
  3  1  1  0
  4 21  1  0
  5  9  1  0
  5  4  2  0
  6  5  1  0
  7  6  1  0
  7  8  1  0
  8  9  2  0
  9 10  1  0
 10 17  1  1
 10 16  1  0
 11 18  1  1
 11 10  1  0
 12 11  1  0
 12 25  1  0
 13 11  1  0
 14 13  1  0
 15 13  2  0
 19  8  1  0
 20  7  1  0
 22  3  1  0
 24 12  1  0
 26  1  1  0
 27 14  1  0
M  END
$$$$
