-43.66287891
     RDKit          3D

 27 28  0  0  1  0  0  0  0  0999 V2000
   -3.6898   -0.7582    0.0501 C   0  0  0  0  0  0  0  0  0  0  0  0
   -2.9248   -1.4251   -0.9117 C   0  0  0  0  0  0  0  0  0  0  0  0
   -3.1883    0.3248    0.7386 C   0  0  0  0  0  0  0  0  0  0  0  0
   -1.6405   -1.0300   -1.2088 C   0  0  0  0  0  0  0  0  0  0  0  0
   -1.1043    0.0622   -0.5247 C   0  0  0  0  0  0  0  0  0  0  0  0
   -1.8927    0.7301    0.4433 C   0  0  0  0  0  0  0  0  0  0  0  0
   -1.1460    1.7533    0.9502 N   0  0  0  0  0  0  0  0  0  0  0  0
    0.0798    1.7521    0.3417 C   0  0  0  0  0  0  0  0  0  0  0  0
    0.1546    0.7393   -0.5698 C   0  0  0  0  0  0  0  0  0  0  0  0
    1.3343    0.3785   -1.4121 C   0  0  1  0  0  0  0  0  0  0  0  0
    2.2343   -0.6665   -0.7153 C   0  0  2  0  0  0  0  0  0  0  0  0
    1.5662   -1.9478   -0.6525 N   0  0  0  0  0  0  0  0  0  0  0  0
    2.6269   -0.1370    0.6581 C   0  0  0  0  0  0  0  0  0  0  0  0
    3.4175    0.9416    0.5884 O   0  0  0  0  0  0  0  0  0  0  0  0
    2.2878   -0.6245    1.7039 O   0  0  0  0  0  0  0  0  0  0  0  0
    1.0007   -0.0533   -2.3558 H   0  0  0  0  0  0  0  0  0  0  0  0
    1.9320    1.2683   -1.6141 H   0  0  0  0  0  0  0  0  0  0  0  0
    3.1547   -0.7835   -1.3011 H   0  0  0  0  0  0  0  0  0  0  0  0
    0.8175    2.4900    0.5957 H   0  0  0  0  0  0  0  0  0  0  0  0
   -1.4434    2.3978    1.6621 H   0  0  0  0  0  0  0  0  0  0  0  0
   -1.0544   -1.5535   -1.9488 H   0  0  0  0  0  0  0  0  0  0  0  0
   -3.7784    0.8420    1.4813 H   0  0  0  0  0  0  0  0  0  0  0  0
   -3.3577   -2.2689   -1.4287 H   0  0  0  0  0  0  0  0  0  0  0  0
    2.1346   -2.6141   -0.1397 H   0  0  0  0  0  0  0  0  0  0  0  0
    0.6930   -1.8477   -0.1431 H   0  0  0  0  0  0  0  0  0  0  0  0
   -4.6933   -1.1010    0.2547 H   0  0  0  0  0  0  0  0  0  0  0  0
    3.6465    1.2481    1.4805 H   0  0  0  0  0  0  0  0  0  0  0  0
  1 26  1  0
  1  3  2  0
  2  1  1  0
  3 22  1  0
  4  2  2  0
  4  5  1  0
  5  6  2  0
  6  3  1  0
  6  7  1  0
  7 20  1  0
  8 19  1  0
  8  7  1  0
  9  5  1  0
  9  8  2  0
 10 11  1  0
 10  9  1  0
 11 18  1  6
 11 12  1  0
 11 13  1  0
 12 25  1  0
 12 24  1  0
 13 15  2  0
 14 13  1  0
 14 27  1  0
 10 16  1  6
 17 10  1  0
 21  4  1  0
 23  2  1  0
M  END
$$$$
