-43.66010834
     RDKit          3D

 27 28  0  0  1  0  0  0  0  0999 V2000
   -3.9561   -0.5258   -0.0867 C   0  0  0  0  0  0  0  0  0  0  0  0
   -3.0103   -1.5047    0.2318 C   0  0  0  0  0  0  0  0  0  0  0  0
   -3.6030    0.8014   -0.1970 C   0  0  0  0  0  0  0  0  0  0  0  0
   -1.6894   -1.1831    0.4443 C   0  0  0  0  0  0  0  0  0  0  0  0
   -1.2989    0.1523    0.3325 C   0  0  0  0  0  0  0  0  0  0  0  0
   -2.2707    1.1329    0.0152 C   0  0  0  0  0  0  0  0  0  0  0  0
   -1.6393    2.3415   -0.0253 N   0  0  0  0  0  0  0  0  0  0  0  0
   -0.3119    2.1609    0.2517 C   0  0  0  0  0  0  0  0  0  0  0  0
   -0.0538    0.8404    0.4825 C   0  0  0  0  0  0  0  0  0  0  0  0
    1.2730    0.2245    0.7675 C   0  0  1  0  0  0  0  0  0  0  0  0
    2.0000   -0.1541   -0.5600 C   0  0  2  0  0  0  0  0  0  0  0  0
    1.3085   -1.1289   -1.3734 N   0  0  0  0  0  0  0  0  0  0  0  0
    3.3722   -0.6572   -0.1632 C   0  0  0  0  0  0  0  0  0  0  0  0
    3.3668   -1.9509    0.1810 O   0  0  0  0  0  0  0  0  0  0  0  0
    4.3598    0.0232   -0.0910 O   0  0  0  0  0  0  0  0  0  0  0  0
    1.9030    0.9250    1.3183 H   0  0  0  0  0  0  0  0  0  0  0  0
    1.1459   -0.6812    1.3648 H   0  0  0  0  0  0  0  0  0  0  0  0
    2.1329    0.7579   -1.1526 H   0  0  0  0  0  0  0  0  0  0  0  0
    0.3638    2.9944    0.2731 H   0  0  0  0  0  0  0  0  0  0  0  0
   -2.0785    3.2241   -0.2229 H   0  0  0  0  0  0  0  0  0  0  0  0
   -0.9704   -1.9491    0.6960 H   0  0  0  0  0  0  0  0  0  0  0  0
   -4.3336    1.5595   -0.4385 H   0  0  0  0  0  0  0  0  0  0  0  0
   -3.3301   -2.5332    0.3126 H   0  0  0  0  0  0  0  0  0  0  0  0
    0.3560   -0.8234   -1.5429 H   0  0  0  0  0  0  0  0  0  0  0  0
    1.2730   -2.0220   -0.8936 H   0  0  0  0  0  0  0  0  0  0  0  0
   -4.9830   -0.8192   -0.2460 H   0  0  0  0  0  0  0  0  0  0  0  0
    4.2583   -2.2283    0.4441 H   0  0  0  0  0  0  0  0  0  0  0  0
  1  2  1  0
  2 23  1  0
  2  4  2  0
  3  1  2  0
  3  6  1  0
  4 21  1  0
  5  4  1  0
  5  9  1  0
  6  5  2  0
  7  6  1  0
  7  8  1  0
  8 19  1  0
  8  9  2  0
  9 10  1  0
 10 16  1  1
 10 17  1  0
 11 18  1  6
 11 13  1  0
 11 10  1  0
 12 25  1  0
 12 11  1  0
 13 15  2  0
 13 14  1  0
 14 27  1  0
 20  7  1  0
 22  3  1  0
 24 12  1  0
 26  1  1  0
M  END
$$$$
