 energy: -69.014420094611 gnorm: 0.000036585573 xtb: 6.5.1 (9af7eec)
     RDKit          3D

 43 42  0  0  0  0  0  0  0  0999 V2000
    0.7234   -2.2865    2.6067 H   0  0  0  0  0  0  0  0  0  0  0  0
    1.0435   -3.2669    2.9458 C   0  0  1  0  0  0  0  0  0  0  0  0
    0.1862   -3.9256    3.0531 H   0  0  0  0  0  0  0  0  0  0  0  0
    1.5176   -3.1704    3.9252 H   0  0  0  0  0  0  0  0  0  0  0  0
    2.0377   -3.8879    2.0108 C   0  0  0  0  0  0  0  0  0  0  0  0
    2.1891   -5.1009    1.9029 O   0  0  0  0  0  0  0  0  0  0  0  0
    2.7870   -3.0251    1.3015 N   0  0  0  0  0  0  0  0  0  0  0  0
    2.7143   -2.0321    1.4603 H   0  0  0  0  0  0  0  0  0  0  0  0
    3.7948   -3.4518    0.3506 C   0  0  1  0  0  0  0  0  0  0  0  0
    3.6724   -4.5299    0.2318 H   0  0  0  0  0  0  0  0  0  0  0  0
    3.5905   -2.7467   -0.9895 C   0  0  2  0  0  0  0  0  0  0  0  0
    3.7749   -1.6812   -0.8729 H   0  0  0  0  0  0  0  0  0  0  0  0
    2.5748   -2.9030   -1.3443 H   0  0  0  0  0  0  0  0  0  0  0  0
    4.2876   -3.1391   -1.7250 H   0  0  0  0  0  0  0  0  0  0  0  0
    5.1837   -3.0786    0.8890 C   0  0  0  0  0  0  0  0  0  0  0  0
    5.5157   -1.9135    0.9815 O   0  0  0  0  0  0  0  0  0  0  0  0
    6.0386   -4.0689    1.2154 N   0  0  0  0  0  0  0  0  0  0  0  0
    6.9629   -3.7500    1.4966 H   0  0  0  0  0  0  0  0  0  0  0  0
    5.8399   -5.4761    1.4922 C   0  0  1  0  0  0  0  0  0  0  0  0
    4.9611   -5.8667    0.9786 H   0  0  0  0  0  0  0  0  0  0  0  0
    7.1000   -6.2429    1.0372 C   0  0  1  0  0  0  0  0  0  0  0  0
    6.9860   -7.2999    1.3209 H   0  0  0  0  0  0  0  0  0  0  0  0
    7.1958   -6.1781   -0.0499 H   0  0  0  0  0  0  0  0  0  0  0  0
    8.2657   -5.6937    1.5733 O   0  0  0  0  0  0  0  0  0  0  0  0
    8.1420   -5.6569    2.5395 H   0  0  0  0  0  0  0  0  0  0  0  0
    5.6765   -5.5904    3.0211 C   0  0  1  0  0  0  0  0  0  0  0  0
    6.6608   -5.5036    3.7533 O   0  0  0  0  0  0  0  0  0  0  0  0
    4.4219   -5.7173    3.4400 N   0  0  0  0  0  0  0  0  0  0  0  0
    3.6642   -5.6906    2.7546 H   0  0  0  0  0  0  0  0  0  0  0  0
    3.9679   -5.6187    4.8251 C   0  0  1  0  0  0  0  0  0  0  0  0
    2.8978   -5.8457    4.8047 H   0  0  0  0  0  0  0  0  0  0  0  0
    4.6753   -6.6040    5.7514 C   0  0  1  0  0  0  0  0  0  0  0  0
    4.4625   -7.6216    5.4318 H   0  0  0  0  0  0  0  0  0  0  0  0
    5.7508   -6.4577    5.7395 H   0  0  0  0  0  0  0  0  0  0  0  0
    4.3097   -6.4713    6.7662 H   0  0  0  0  0  0  0  0  0  0  0  0
    4.0900   -4.1571    5.3017 C   0  0  0  0  0  0  0  0  0  0  0  0
    3.0989   -3.4762    5.4972 O   0  0  0  0  0  0  0  0  0  0  0  0
    5.3438   -3.7198    5.4597 N   0  0  0  0  0  0  0  0  0  0  0  0
    6.1118   -4.3170    5.1751 H   0  0  0  0  0  0  0  0  0  0  0  0
    5.6494   -2.3563    5.8196 C   0  0  1  0  0  0  0  0  0  0  0  0
    6.3500   -2.3395    6.6546 H   0  0  0  0  0  0  0  0  0  0  0  0
    6.0866   -1.8212    4.9739 H   0  0  0  0  0  0  0  0  0  0  0  0
    4.7209   -1.8684    6.1116 H   0  0  0  0  0  0  0  0  0  0  0  0
  2  1  1  6
  2  4  1  0
  2  3  1  0
  2  5  1  0
  5  6  1  0
  5  7  1  0
  7  8  1  0
  7  9  1  0
  9 15  1  0
  9 10  1  6
  9 11  1  0
 11 12  1  1
 11 14  1  0
 11 13  1  0
 15 17  1  0
 15 16  2  0
 17 18  1  0
 17 19  1  0
 19 20  1  6
 19 26  1  0
 19 21  1  0
 21 24  1  0
 21 23  1  6
 21 22  1  0
 24 25  1  0
 26 28  1  0
 26 27  1  1
 28 29  1  0
 28 30  1  0
 30 32  1  0
 30 31  1  6
 30 36  1  0
 32 35  1  1
 32 34  1  0
 32 33  1  0
 36 37  1  0
 36 38  1  0
 38 39  1  0
 38 40  1  0
 40 43  1  1
 40 42  1  0
 40 41  1  0
M  END
$$$$
