 energy: -69.011106947669 gnorm: 0.000024669946 xtb: 6.5.1 (9af7eec)
     RDKit          3D

 43 42  0  0  0  0  0  0  0  0999 V2000
    3.0200   -2.3510    0.5435 H   0  0  0  0  0  0  0  0  0  0  0  0
    2.6570   -1.4112    0.9528 C   0  0  1  0  0  0  0  0  0  0  0  0
    2.6384   -1.4724    2.0368 H   0  0  0  0  0  0  0  0  0  0  0  0
    1.6491   -1.2358    0.5837 H   0  0  0  0  0  0  0  0  0  0  0  0
    3.5659   -0.2757    0.5296 C   0  0  0  0  0  0  0  0  0  0  0  0
    4.1567    0.4441    1.3076 O   0  0  0  0  0  0  0  0  0  0  0  0
    3.6750   -0.1445   -0.8097 N   0  0  0  0  0  0  0  0  0  0  0  0
    3.1078   -0.6902   -1.4459 H   0  0  0  0  0  0  0  0  0  0  0  0
    4.4143    0.9236   -1.4376 C   0  0  1  0  0  0  0  0  0  0  0  0
    4.3765    1.8026   -0.7831 H   0  0  0  0  0  0  0  0  0  0  0  0
    5.8778    0.5223   -1.6639 C   0  0  2  0  0  0  0  0  0  0  0  0
    5.9279   -0.3594   -2.2990 H   0  0  0  0  0  0  0  0  0  0  0  0
    6.3339    0.2928   -0.7044 H   0  0  0  0  0  0  0  0  0  0  0  0
    6.4322    1.3298   -2.1347 H   0  0  0  0  0  0  0  0  0  0  0  0
    3.7425    1.2191   -2.7794 C   0  0  0  0  0  0  0  0  0  0  0  0
    2.9405    0.4549   -3.2808 O   0  0  0  0  0  0  0  0  0  0  0  0
    4.1269    2.3716   -3.3487 N   0  0  0  0  0  0  0  0  0  0  0  0
    4.8405    2.9586   -2.9334 H   0  0  0  0  0  0  0  0  0  0  0  0
    3.7172    2.7864   -4.6652 C   0  0  1  0  0  0  0  0  0  0  0  0
    3.5743    1.9052   -5.3000 H   0  0  0  0  0  0  0  0  0  0  0  0
    2.3706    3.5710   -4.6011 C   0  0  1  0  0  0  0  0  0  0  0  0
    1.5949    2.8654   -4.2919 H   0  0  0  0  0  0  0  0  0  0  0  0
    2.4621    4.3531   -3.8386 H   0  0  0  0  0  0  0  0  0  0  0  0
    1.9865    4.0981   -5.8377 O   0  0  0  0  0  0  0  0  0  0  0  0
    2.4032    4.9739   -5.9600 H   0  0  0  0  0  0  0  0  0  0  0  0
    4.8028    3.6928   -5.2277 C   0  0  0  0  0  0  0  0  0  0  0  0
    5.6906    4.1490   -4.5327 O   0  0  0  0  0  0  0  0  0  0  0  0
    4.6831    3.9314   -6.5523 N   0  0  0  0  0  0  0  0  0  0  0  0
    3.7964    3.6875   -6.9784 H   0  0  0  0  0  0  0  0  0  0  0  0
    5.3890    5.0518   -7.1357 C   0  0  1  0  0  0  0  0  0  0  0  0
    6.4238    5.0033   -6.7795 H   0  0  0  0  0  0  0  0  0  0  0  0
    5.3254    4.9802   -8.6570 C   0  0  1  0  0  0  0  0  0  0  0  0
    5.7443    4.0381   -9.0012 H   0  0  0  0  0  0  0  0  0  0  0  0
    4.2914    5.0463   -8.9893 H   0  0  0  0  0  0  0  0  0  0  0  0
    5.8860    5.7972   -9.1033 H   0  0  0  0  0  0  0  0  0  0  0  0
    4.7424    6.3560   -6.6348 C   0  0  0  0  0  0  0  0  0  0  0  0
    3.5987    6.3820   -6.2139 O   0  0  0  0  0  0  0  0  0  0  0  0
    5.5249    7.4387   -6.7252 N   0  0  0  0  0  0  0  0  0  0  0  0
    6.4807    7.3356   -7.0271 H   0  0  0  0  0  0  0  0  0  0  0  0
    5.0991    8.7526   -6.3031 C   0  0  1  0  0  0  0  0  0  0  0  0
    5.6995    9.0999   -5.4611 H   0  0  0  0  0  0  0  0  0  0  0  0
    5.1870    9.4630   -7.1261 H   0  0  0  0  0  0  0  0  0  0  0  0
    4.0576    8.6793   -5.9961 H   0  0  0  0  0  0  0  0  0  0  0  0
  2  1  1  6
  2  4  1  0
  2  3  1  0
  2  5  1  0
  5  6  1  0
  5  7  1  0
  7  8  1  0
  7  9  1  0
  9 15  1  0
  9 10  1  1
  9 11  1  0
 11 12  1  6
 11 14  1  0
 11 13  1  0
 15 17  1  0
 15 16  2  0
 17 18  1  0
 17 19  1  0
 19 20  1  6
 19 26  1  0
 19 21  1  0
 21 24  1  0
 21 23  1  1
 21 22  1  0
 24 25  1  0
 26 28  1  0
 26 27  1  0
 28 29  1  0
 28 30  1  0
 30 32  1  0
 30 31  1  6
 30 36  1  0
 32 35  1  6
 32 34  1  0
 32 33  1  0
 36 37  1  0
 36 38  1  0
 38 39  1  0
 38 40  1  0
 40 43  1  1
 40 42  1  0
 40 41  1  0
M  END
$$$$
