 energy: -69.011214204823 gnorm: 0.000040488722 xtb: 6.5.1 (9af7eec)
     RDKit          3D

 43 42  0  0  0  0  0  0  0  0999 V2000
    1.3946    2.8852   -2.9025 H   0  0  0  0  0  0  0  0  0  0  0  0
    1.6439    1.9365   -3.3754 C   0  0  1  0  0  0  0  0  0  0  0  0
    2.7114    1.9114   -3.5770 H   0  0  0  0  0  0  0  0  0  0  0  0
    1.0890    1.8544   -4.3054 H   0  0  0  0  0  0  0  0  0  0  0  0
    1.2427    0.8183   -2.4512 C   0  0  0  0  0  0  0  0  0  0  0  0
    0.2329    0.1517   -2.5999 O   0  0  0  0  0  0  0  0  0  0  0  0
    2.1061    0.5745   -1.4400 N   0  0  0  0  0  0  0  0  0  0  0  0
    2.8020    1.2650   -1.2077 H   0  0  0  0  0  0  0  0  0  0  0  0
    1.7078   -0.3517   -0.3944 C   0  0  1  0  0  0  0  0  0  0  0  0
    1.5597   -1.3261   -0.8713 H   0  0  0  0  0  0  0  0  0  0  0  0
    2.7727   -0.4266    0.6907 C   0  0  2  0  0  0  0  0  0  0  0  0
    2.8726    0.5421    1.1762 H   0  0  0  0  0  0  0  0  0  0  0  0
    3.7299   -0.7127    0.2607 H   0  0  0  0  0  0  0  0  0  0  0  0
    2.4940   -1.1606    1.4424 H   0  0  0  0  0  0  0  0  0  0  0  0
    0.3859    0.1726    0.1938 C   0  0  0  0  0  0  0  0  0  0  0  0
    0.2115    1.3614    0.3576 O   0  0  0  0  0  0  0  0  0  0  0  0
   -0.5751   -0.7251    0.4968 N   0  0  0  0  0  0  0  0  0  0  0  0
   -1.4352   -0.3069    0.8301 H   0  0  0  0  0  0  0  0  0  0  0  0
   -0.5446   -2.1648    0.5166 C   0  0  1  0  0  0  0  0  0  0  0  0
    0.4893   -2.5226    0.4702 H   0  0  0  0  0  0  0  0  0  0  0  0
   -1.1447   -2.6809    1.8480 C   0  0  1  0  0  0  0  0  0  0  0  0
   -0.6529   -2.1749    2.6839 H   0  0  0  0  0  0  0  0  0  0  0  0
   -2.2180   -2.4359    1.8703 H   0  0  0  0  0  0  0  0  0  0  0  0
   -0.9364   -4.0468    2.0219 O   0  0  0  0  0  0  0  0  0  0  0  0
   -1.3463   -4.4861    1.2554 H   0  0  0  0  0  0  0  0  0  0  0  0
   -1.3004   -2.8048   -0.6656 C   0  0  0  0  0  0  0  0  0  0  0  0
   -1.8170   -3.9144   -0.5398 O   0  0  0  0  0  0  0  0  0  0  0  0
   -1.3360   -2.1003   -1.7895 N   0  0  0  0  0  0  0  0  0  0  0  0
   -0.8156   -1.2301   -1.9041 H   0  0  0  0  0  0  0  0  0  0  0  0
   -2.0273   -2.5653   -2.9830 C   0  0  1  0  0  0  0  0  0  0  0  0
   -2.9097   -3.1301   -2.6560 H   0  0  0  0  0  0  0  0  0  0  0  0
   -2.4210   -1.3718   -3.8350 C   0  0  1  0  0  0  0  0  0  0  0  0
   -3.1134   -0.7303   -3.2961 H   0  0  0  0  0  0  0  0  0  0  0  0
   -1.5309   -0.8030   -4.0891 H   0  0  0  0  0  0  0  0  0  0  0  0
   -2.8872   -1.7149   -4.7539 H   0  0  0  0  0  0  0  0  0  0  0  0
   -1.1126   -3.5298   -3.7737 C   0  0  0  0  0  0  0  0  0  0  0  0
   -0.6001   -3.2409   -4.8327 O   0  0  0  0  0  0  0  0  0  0  0  0
   -0.9604   -4.7151   -3.1560 N   0  0  0  0  0  0  0  0  0  0  0  0
   -1.3897   -4.8547   -2.2490 H   0  0  0  0  0  0  0  0  0  0  0  0
   -0.1253   -5.7652   -3.6847 C   0  0  1  0  0  0  0  0  0  0  0  0
    0.7076   -5.9760   -3.0107 H   0  0  0  0  0  0  0  0  0  0  0  0
   -0.7064   -6.6778   -3.8272 H   0  0  0  0  0  0  0  0  0  0  0  0
    0.2624   -5.4287   -4.6451 H   0  0  0  0  0  0  0  0  0  0  0  0
  2  1  1  1
  2  4  1  0
  2  3  1  0
  2  5  1  0
  5  6  1  0
  5  7  1  0
  7  8  1  0
  7  9  1  0
  9 15  1  0
  9 10  1  6
  9 11  1  0
 11 12  1  1
 11 14  1  0
 11 13  1  0
 15 17  1  0
 15 16  2  0
 17 18  1  0
 17 19  1  0
 19 20  1  6
 19 26  1  0
 19 21  1  0
 21 24  1  0
 21 23  1  6
 21 22  1  0
 24 25  1  0
 26 28  1  0
 26 27  1  0
 28 29  1  0
 28 30  1  0
 30 32  1  0
 30 31  1  1
 30 36  1  0
 32 35  1  6
 32 34  1  0
 32 33  1  0
 36 37  1  0
 36 38  1  0
 38 39  1  0
 38 40  1  0
 40 43  1  6
 40 42  1  0
 40 41  1  0
M  END
$$$$
