 energy: -69.010682232970 gnorm: 0.000037000251 xtb: 6.5.1 (9af7eec)
     RDKit          3D

 43 42  0  0  0  0  0  0  0  0999 V2000
    5.6099   -2.1913    0.4600 H   0  0  0  0  0  0  0  0  0  0  0  0
    5.3522   -1.3328    1.0759 C   0  0  1  0  0  0  0  0  0  0  0  0
    6.0070   -0.5030    0.8285 H   0  0  0  0  0  0  0  0  0  0  0  0
    5.4877   -1.5989    2.1218 H   0  0  0  0  0  0  0  0  0  0  0  0
    3.9156   -0.9265    0.8265 C   0  0  0  0  0  0  0  0  0  0  0  0
    3.5779    0.1622    0.4166 O   0  0  0  0  0  0  0  0  0  0  0  0
    3.0228   -1.9103    1.0884 N   0  0  0  0  0  0  0  0  0  0  0  0
    3.3083   -2.7795    1.5181 H   0  0  0  0  0  0  0  0  0  0  0  0
    1.5966   -1.7054    1.0036 C   0  0  1  0  0  0  0  0  0  0  0  0
    1.3781   -0.6700    1.2924 H   0  0  0  0  0  0  0  0  0  0  0  0
    1.0868   -1.9454   -0.4250 C   0  0  2  0  0  0  0  0  0  0  0  0
    1.2741   -2.9736   -0.7270 H   0  0  0  0  0  0  0  0  0  0  0  0
    1.6123   -1.2757   -1.1005 H   0  0  0  0  0  0  0  0  0  0  0  0
    0.0205   -1.7488   -0.4949 H   0  0  0  0  0  0  0  0  0  0  0  0
    0.9206   -2.6896    1.9510 C   0  0  0  0  0  0  0  0  0  0  0  0
    1.5230   -3.6502    2.4145 O   0  0  0  0  0  0  0  0  0  0  0  0
   -0.3704   -2.4438    2.1802 N   0  0  0  0  0  0  0  0  0  0  0  0
   -0.8119   -1.6062    1.8201 H   0  0  0  0  0  0  0  0  0  0  0  0
   -1.2625   -3.2720    2.9664 C   0  0  1  0  0  0  0  0  0  0  0  0
   -0.6762   -3.8941    3.6450 H   0  0  0  0  0  0  0  0  0  0  0  0
   -2.1873   -2.3296    3.7651 C   0  0  1  0  0  0  0  0  0  0  0  0
   -2.9383   -2.9312    4.2947 H   0  0  0  0  0  0  0  0  0  0  0  0
   -1.5972   -1.7734    4.4985 H   0  0  0  0  0  0  0  0  0  0  0  0
   -2.7833   -1.3831    2.9282 O   0  0  0  0  0  0  0  0  0  0  0  0
   -3.3061   -1.8869    2.2767 H   0  0  0  0  0  0  0  0  0  0  0  0
   -2.1144   -4.1188    1.9971 C   0  0  0  0  0  0  0  0  0  0  0  0
   -3.1572   -3.6718    1.5441 O   0  0  0  0  0  0  0  0  0  0  0  0
   -1.6752   -5.3349    1.6602 N   0  0  0  0  0  0  0  0  0  0  0  0
   -2.2425   -5.8203    0.9712 H   0  0  0  0  0  0  0  0  0  0  0  0
   -0.4384   -6.0203    1.9635 C   0  0  1  0  0  0  0  0  0  0  0  0
    0.1990   -5.3932    2.5856 H   0  0  0  0  0  0  0  0  0  0  0  0
   -0.7323   -7.3485    2.6623 C   0  0  1  0  0  0  0  0  0  0  0  0
   -1.3092   -7.1799    3.5684 H   0  0  0  0  0  0  0  0  0  0  0  0
   -1.2977   -7.9955    1.9957 H   0  0  0  0  0  0  0  0  0  0  0  0
    0.1987   -7.8450    2.9224 H   0  0  0  0  0  0  0  0  0  0  0  0
    0.2641   -6.3099    0.6210 C   0  0  0  0  0  0  0  0  0  0  0  0
   -0.3164   -6.8775   -0.2814 O   0  0  0  0  0  0  0  0  0  0  0  0
    1.5391   -5.8964    0.5684 N   0  0  0  0  0  0  0  0  0  0  0  0
    1.9014   -5.3244    1.3202 H   0  0  0  0  0  0  0  0  0  0  0  0
    2.3682   -6.0844   -0.5982 C   0  0  1  0  0  0  0  0  0  0  0  0
    2.6612   -5.1245   -1.0281 H   0  0  0  0  0  0  0  0  0  0  0  0
    3.2668   -6.6462   -0.3381 H   0  0  0  0  0  0  0  0  0  0  0  0
    1.7897   -6.6457   -1.3302 H   0  0  0  0  0  0  0  0  0  0  0  0
  2  1  1  6
  2  4  1  0
  2  3  1  0
  2  5  1  0
  5  6  1  0
  5  7  1  0
  7  8  1  0
  7  9  1  0
  9 15  1  0
  9 10  1  1
  9 11  1  0
 11 12  1  6
 11 14  1  0
 11 13  1  0
 15 17  1  0
 15 16  2  0
 17 18  1  0
 17 19  1  0
 19 20  1  1
 19 26  1  0
 19 21  1  0
 21 24  1  0
 21 23  1  1
 21 22  1  0
 24 25  1  0
 26 28  1  0
 26 27  1  0
 28 29  1  0
 28 30  1  0
 30 32  1  0
 30 31  1  1
 30 36  1  0
 32 35  1  1
 32 34  1  0
 32 33  1  0
 36 37  1  0
 36 38  1  0
 38 39  1  0
 38 40  1  0
 40 43  1  6
 40 42  1  0
 40 41  1  0
M  END
$$$$
