 energy: -69.013828005016 gnorm: 0.000045447113 xtb: 6.5.1 (9af7eec)
     RDKit          3D

 43 42  0  0  0  0  0  0  0  0999 V2000
    4.7162   -1.1993   -0.4104 H   0  0  0  0  0  0  0  0  0  0  0  0
    4.6867   -2.2819   -0.3018 C   0  0  1  0  0  0  0  0  0  0  0  0
    4.6393   -2.7338   -1.2885 H   0  0  0  0  0  0  0  0  0  0  0  0
    3.8037   -2.5618    0.2674 H   0  0  0  0  0  0  0  0  0  0  0  0
    5.9442   -2.7553    0.3854 C   0  0  0  0  0  0  0  0  0  0  0  0
    6.7889   -3.4235   -0.1967 O   0  0  0  0  0  0  0  0  0  0  0  0
    6.1005   -2.4502    1.6848 N   0  0  0  0  0  0  0  0  0  0  0  0
    7.0106   -2.7111    2.0757 H   0  0  0  0  0  0  0  0  0  0  0  0
    5.3888   -1.4743    2.4849 C   0  0  1  0  0  0  0  0  0  0  0  0
    4.5644   -1.0604    1.8972 H   0  0  0  0  0  0  0  0  0  0  0  0
    4.8438   -2.1340    3.7489 C   0  0  2  0  0  0  0  0  0  0  0  0
    5.6269   -2.6822    4.2678 H   0  0  0  0  0  0  0  0  0  0  0  0
    4.0685   -2.8464    3.4756 H   0  0  0  0  0  0  0  0  0  0  0  0
    4.4122   -1.3928    4.4165 H   0  0  0  0  0  0  0  0  0  0  0  0
    6.3790   -0.3192    2.7198 C   0  0  0  0  0  0  0  0  0  0  0  0
    6.6584    0.4464    1.8073 O   0  0  0  0  0  0  0  0  0  0  0  0
    6.9078   -0.2199    3.9427 N   0  0  0  0  0  0  0  0  0  0  0  0
    6.7837   -0.9517    4.6296 H   0  0  0  0  0  0  0  0  0  0  0  0
    7.9323    0.7411    4.3090 C   0  0  1  0  0  0  0  0  0  0  0  0
    7.7048    1.7057    3.8445 H   0  0  0  0  0  0  0  0  0  0  0  0
    7.9429    0.8444    5.8415 C   0  0  1  0  0  0  0  0  0  0  0  0
    8.7548    1.5173    6.1474 H   0  0  0  0  0  0  0  0  0  0  0  0
    6.9919    1.2512    6.1958 H   0  0  0  0  0  0  0  0  0  0  0  0
    8.0810   -0.4211    6.4240 O   0  0  0  0  0  0  0  0  0  0  0  0
    8.9342   -0.7696    6.1102 H   0  0  0  0  0  0  0  0  0  0  0  0
    9.2867    0.1998    3.7904 C   0  0  0  0  0  0  0  0  0  0  0  0
   10.0824   -0.3265    4.5423 O   0  0  0  0  0  0  0  0  0  0  0  0
    9.4472    0.4180    2.4678 N   0  0  0  0  0  0  0  0  0  0  0  0
    8.6149    0.7879    2.0114 H   0  0  0  0  0  0  0  0  0  0  0  0
   10.1973   -0.4751    1.5956 C   0  0  1  0  0  0  0  0  0  0  0  0
   10.2530    0.0205    0.6218 H   0  0  0  0  0  0  0  0  0  0  0  0
   11.6013   -0.7820    2.1066 C   0  0  1  0  0  0  0  0  0  0  0  0
   12.1571    0.1441    2.2311 H   0  0  0  0  0  0  0  0  0  0  0  0
   11.5471   -1.2872    3.0657 H   0  0  0  0  0  0  0  0  0  0  0  0
   12.1231   -1.4185    1.3961 H   0  0  0  0  0  0  0  0  0  0  0  0
    9.3498   -1.7568    1.4836 C   0  0  0  0  0  0  0  0  0  0  0  0
    8.7009   -2.1367    2.4514 O   0  0  0  0  0  0  0  0  0  0  0  0
    9.3113   -2.3994    0.3160 N   0  0  0  0  0  0  0  0  0  0  0  0
    8.5546   -3.0850    0.2191 H   0  0  0  0  0  0  0  0  0  0  0  0
    9.9605   -2.0093   -0.9110 C   0  0  1  0  0  0  0  0  0  0  0  0
   11.0172   -1.8016   -0.7443 H   0  0  0  0  0  0  0  0  0  0  0  0
    9.8744   -2.8337   -1.6147 H   0  0  0  0  0  0  0  0  0  0  0  0
    9.4894   -1.1273   -1.3560 H   0  0  0  0  0  0  0  0  0  0  0  0
  2  1  1  6
  2  4  1  0
  2  3  1  0
  2  5  1  0
  5  6  1  0
  5  7  1  0
  7  8  1  0
  7  9  1  0
  9 15  1  0
  9 10  1  6
  9 11  1  0
 11 12  1  1
 11 14  1  0
 11 13  1  0
 15 17  1  0
 15 16  2  0
 17 18  1  0
 17 19  1  0
 19 20  1  6
 19 26  1  0
 19 21  1  0
 21 24  1  0
 21 23  1  1
 21 22  1  0
 24 25  1  0
 26 28  1  0
 26 27  1  0
 28 29  1  0
 28 30  1  0
 30 32  1  0
 30 31  1  6
 30 36  1  0
 32 35  1  6
 32 34  1  0
 32 33  1  0
 36 37  1  0
 36 38  1  0
 38 39  1  0
 38 40  1  0
 40 43  1  6
 40 42  1  0
 40 41  1  0
M  END
$$$$
