 energy: -69.009952191787 gnorm: 0.000026071540 xtb: 6.5.1 (9af7eec)
     RDKit          3D

 43 42  0  0  0  0  0  0  0  0999 V2000
    4.0255    4.2655    2.3102 H   0  0  0  0  0  0  0  0  0  0  0  0
    4.3557    3.3710    1.7865 C   0  0  1  0  0  0  0  0  0  0  0  0
    5.4351    3.2956    1.9322 H   0  0  0  0  0  0  0  0  0  0  0  0
    4.1323    3.4630    0.7279 H   0  0  0  0  0  0  0  0  0  0  0  0
    3.6942    2.1751    2.4087 C   0  0  0  0  0  0  0  0  0  0  0  0
    3.7853    1.9104    3.6013 O   0  0  0  0  0  0  0  0  0  0  0  0
    2.9833    1.3888    1.5759 N   0  0  0  0  0  0  0  0  0  0  0  0
    3.0026    1.5503    0.5818 H   0  0  0  0  0  0  0  0  0  0  0  0
    2.2540    0.2164    2.0402 C   0  0  1  0  0  0  0  0  0  0  0  0
    1.6341    0.5219    2.8922 H   0  0  0  0  0  0  0  0  0  0  0  0
    1.3973   -0.3372    0.9141 C   0  0  2  0  0  0  0  0  0  0  0  0
    2.0402   -0.7445    0.1368 H   0  0  0  0  0  0  0  0  0  0  0  0
    0.7618    0.4404    0.4965 H   0  0  0  0  0  0  0  0  0  0  0  0
    0.7693   -1.1399    1.2904 H   0  0  0  0  0  0  0  0  0  0  0  0
    3.2699   -0.8500    2.5085 C   0  0  0  0  0  0  0  0  0  0  0  0
    3.8248   -1.5933    1.7291 O   0  0  0  0  0  0  0  0  0  0  0  0
    3.4697   -0.8497    3.8445 N   0  0  0  0  0  0  0  0  0  0  0  0
    3.1474   -0.0369    4.3529 H   0  0  0  0  0  0  0  0  0  0  0  0
    4.4971   -1.6564    4.4727 C   0  0  1  0  0  0  0  0  0  0  0  0
    4.5180   -1.4129    5.5404 H   0  0  0  0  0  0  0  0  0  0  0  0
    4.1881   -3.1669    4.3362 C   0  0  1  0  0  0  0  0  0  0  0  0
    3.1614   -3.3512    4.6645 H   0  0  0  0  0  0  0  0  0  0  0  0
    4.2806   -3.4516    3.2806 H   0  0  0  0  0  0  0  0  0  0  0  0
    5.0216   -3.9363    5.1496 O   0  0  0  0  0  0  0  0  0  0  0  0
    5.9323   -3.7456    4.8670 H   0  0  0  0  0  0  0  0  0  0  0  0
    5.8947   -1.3804    3.8965 C   0  0  0  0  0  0  0  0  0  0  0  0
    6.7865   -2.2114    3.9483 O   0  0  0  0  0  0  0  0  0  0  0  0
    6.0632   -0.1538    3.3843 N   0  0  0  0  0  0  0  0  0  0  0  0
    5.3122    0.5231    3.4373 H   0  0  0  0  0  0  0  0  0  0  0  0
    7.1925    0.1934    2.5397 C   0  0  1  0  0  0  0  0  0  0  0  0
    7.9362   -0.6000    2.6549 H   0  0  0  0  0  0  0  0  0  0  0  0
    6.7547    0.2749    1.0787 C   0  0  1  0  0  0  0  0  0  0  0  0
    6.1879   -0.6159    0.8193 H   0  0  0  0  0  0  0  0  0  0  0  0
    6.1355    1.1540    0.9224 H   0  0  0  0  0  0  0  0  0  0  0  0
    7.6261    0.3494    0.4340 H   0  0  0  0  0  0  0  0  0  0  0  0
    7.7417    1.5375    3.0274 C   0  0  0  0  0  0  0  0  0  0  0  0
    7.4781    2.5860    2.4664 O   0  0  0  0  0  0  0  0  0  0  0  0
    8.4897    1.5187    4.1432 N   0  0  0  0  0  0  0  0  0  0  0  0
    8.8330    2.4268    4.4284 H   0  0  0  0  0  0  0  0  0  0  0  0
    8.9454    0.3960    4.9278 C   0  0  1  0  0  0  0  0  0  0  0  0
    8.3169   -0.4759    4.7722 H   0  0  0  0  0  0  0  0  0  0  0  0
    9.9766    0.1360    4.6713 H   0  0  0  0  0  0  0  0  0  0  0  0
    8.9080    0.6616    5.9841 H   0  0  0  0  0  0  0  0  0  0  0  0
  2  1  1  1
  2  4  1  0
  2  3  1  0
  2  5  1  0
  5  6  1  0
  5  7  1  0
  7  8  1  0
  7  9  1  0
  9 15  1  0
  9 10  1  1
  9 11  1  0
 11 12  1  6
 11 14  1  0
 11 13  1  0
 15 17  1  0
 15 16  2  0
 17 18  1  0
 17 19  1  0
 19 20  1  1
 19 26  1  0
 19 21  1  0
 21 24  1  0
 21 23  1  6
 21 22  1  0
 24 25  1  0
 26 28  1  0
 26 27  1  0
 28 29  1  0
 28 30  1  0
 30 32  1  0
 30 31  1  6
 30 36  1  0
 32 35  1  6
 32 34  1  0
 32 33  1  0
 36 37  1  0
 36 38  1  0
 38 39  1  0
 38 40  1  0
 40 43  1  1
 40 42  1  0
 40 41  1  0
M  END
$$$$
