 energy: -69.010433998892 gnorm: 0.000037135764 xtb: 6.5.1 (9af7eec)
     RDKit          3D

 43 42  0  0  0  0  0  0  0  0999 V2000
    2.5582    1.9727    1.0813 H   0  0  0  0  0  0  0  0  0  0  0  0
    2.3220    1.3283    1.9261 C   0  0  1  0  0  0  0  0  0  0  0  0
    1.7729    1.9068    2.6631 H   0  0  0  0  0  0  0  0  0  0  0  0
    3.2513    0.9678    2.3609 H   0  0  0  0  0  0  0  0  0  0  0  0
    1.4652    0.1770    1.4554 C   0  0  0  0  0  0  0  0  0  0  0  0
    0.2877    0.0597    1.7349 O   0  0  0  0  0  0  0  0  0  0  0  0
    2.1299   -0.7460    0.7223 N   0  0  0  0  0  0  0  0  0  0  0  0
    3.0737   -0.5466    0.4260 H   0  0  0  0  0  0  0  0  0  0  0  0
    1.4519   -1.8253    0.0210 C   0  0  1  0  0  0  0  0  0  0  0  0
    0.9611   -1.4358   -0.8823 H   0  0  0  0  0  0  0  0  0  0  0  0
    2.4500   -2.9115   -0.3648 C   0  0  2  0  0  0  0  0  0  0  0  0
    2.9549   -3.3042    0.5150 H   0  0  0  0  0  0  0  0  0  0  0  0
    3.1944   -2.5173   -1.0544 H   0  0  0  0  0  0  0  0  0  0  0  0
    1.9252   -3.7288   -0.8515 H   0  0  0  0  0  0  0  0  0  0  0  0
    0.3370   -2.4305    0.8858 C   0  0  0  0  0  0  0  0  0  0  0  0
   -0.7631   -2.6466    0.4250 O   0  0  0  0  0  0  0  0  0  0  0  0
    0.7259   -2.7629    2.1276 N   0  0  0  0  0  0  0  0  0  0  0  0
    1.6442   -2.4796    2.4318 H   0  0  0  0  0  0  0  0  0  0  0  0
   -0.1645   -3.2930    3.1447 C   0  0  1  0  0  0  0  0  0  0  0  0
    0.4537   -3.8887    3.8275 H   0  0  0  0  0  0  0  0  0  0  0  0
   -0.8176   -2.1604    3.9648 C   0  0  1  0  0  0  0  0  0  0  0  0
   -1.3917   -2.6063    4.7826 H   0  0  0  0  0  0  0  0  0  0  0  0
   -0.0152   -1.5471    4.4010 H   0  0  0  0  0  0  0  0  0  0  0  0
   -1.7095   -1.3604    3.2411 O   0  0  0  0  0  0  0  0  0  0  0  0
   -1.2133   -0.8418    2.5865 H   0  0  0  0  0  0  0  0  0  0  0  0
   -1.1391   -4.3018    2.4870 C   0  0  1  0  0  0  0  0  0  0  0  0
   -0.7082   -5.3577    2.0705 O   0  0  0  0  0  0  0  0  0  0  0  0
   -2.4289   -3.9477    2.4919 N   0  0  0  0  0  0  0  0  0  0  0  0
   -2.6793   -3.0025    2.7570 H   0  0  0  0  0  0  0  0  0  0  0  0
   -3.4835   -4.8174    2.0217 C   0  0  1  0  0  0  0  0  0  0  0  0
   -2.9980   -5.7319    1.6581 H   0  0  0  0  0  0  0  0  0  0  0  0
   -4.4396   -5.1569    3.1633 C   0  0  1  0  0  0  0  0  0  0  0  0
   -3.9342   -5.7453    3.9248 H   0  0  0  0  0  0  0  0  0  0  0  0
   -4.8206   -4.2420    3.6123 H   0  0  0  0  0  0  0  0  0  0  0  0
   -5.2792   -5.7194    2.7660 H   0  0  0  0  0  0  0  0  0  0  0  0
   -4.2722   -4.2163    0.8425 C   0  0  0  0  0  0  0  0  0  0  0  0
   -5.4258   -4.5338    0.6246 O   0  0  0  0  0  0  0  0  0  0  0  0
   -3.5797   -3.3441    0.0983 N   0  0  0  0  0  0  0  0  0  0  0  0
   -2.6040   -3.1605    0.2942 H   0  0  0  0  0  0  0  0  0  0  0  0
   -4.1452   -2.7079   -1.0646 C   0  0  1  0  0  0  0  0  0  0  0  0
   -5.1885   -3.0115   -1.1395 H   0  0  0  0  0  0  0  0  0  0  0  0
   -4.0852   -1.6226   -0.9673 H   0  0  0  0  0  0  0  0  0  0  0  0
   -3.6131   -3.0130   -1.9679 H   0  0  0  0  0  0  0  0  0  0  0  0
  2  1  1  6
  2  4  1  0
  2  3  1  0
  2  5  1  0
  5  6  1  0
  5  7  1  0
  7  8  1  0
  7  9  1  0
  9 15  1  0
  9 10  1  6
  9 11  1  0
 11 12  1  1
 11 14  1  0
 11 13  1  0
 15 17  1  0
 15 16  2  0
 17 18  1  0
 17 19  1  0
 19 20  1  1
 19 26  1  0
 19 21  1  0
 21 24  1  0
 21 23  1  1
 21 22  1  0
 24 25  1  0
 26 28  1  0
 26 27  1  1
 28 29  1  0
 28 30  1  0
 30 32  1  0
 30 31  1  6
 30 36  1  0
 32 35  1  6
 32 34  1  0
 32 33  1  0
 36 37  1  0
 36 38  1  0
 38 39  1  0
 38 40  1  0
 40 43  1  6
 40 42  1  0
 40 41  1  0
M  END
$$$$
