 energy: -69.010874348088 gnorm: 0.000044756409 xtb: 6.5.1 (9af7eec)
     RDKit          3D

 43 42  0  0  0  0  0  0  0  0999 V2000
    3.2828   -1.9599   -1.7854 H   0  0  0  0  0  0  0  0  0  0  0  0
    4.1002   -1.7631   -1.0949 C   0  0  1  0  0  0  0  0  0  0  0  0
    5.0447   -1.9001   -1.6134 H   0  0  0  0  0  0  0  0  0  0  0  0
    4.0351   -2.4670   -0.2681 H   0  0  0  0  0  0  0  0  0  0  0  0
    4.0106   -0.3454   -0.5840 C   0  0  0  0  0  0  0  0  0  0  0  0
    4.8734    0.4947   -0.7862 O   0  0  0  0  0  0  0  0  0  0  0  0
    2.9087   -0.0902    0.1486 N   0  0  0  0  0  0  0  0  0  0  0  0
    2.2183   -0.8136    0.2802 H   0  0  0  0  0  0  0  0  0  0  0  0
    2.5384    1.2358    0.6128 C   0  0  1  0  0  0  0  0  0  0  0  0
    3.3042    1.9161    0.2340 H   0  0  0  0  0  0  0  0  0  0  0  0
    1.1709    1.6242    0.0603 C   0  0  2  0  0  0  0  0  0  0  0  0
    0.4031    0.9866    0.4917 H   0  0  0  0  0  0  0  0  0  0  0  0
    1.1604    1.5297   -1.0229 H   0  0  0  0  0  0  0  0  0  0  0  0
    0.9446    2.6518    0.3297 H   0  0  0  0  0  0  0  0  0  0  0  0
    2.5012    1.2651    2.1570 C   0  0  0  0  0  0  0  0  0  0  0  0
    1.4574    1.1704    2.7660 O   0  0  0  0  0  0  0  0  0  0  0  0
    3.6807    1.4172    2.7907 N   0  0  0  0  0  0  0  0  0  0  0  0
    3.6499    1.3644    3.8074 H   0  0  0  0  0  0  0  0  0  0  0  0
    5.0140    1.3455    2.2589 C   0  0  1  0  0  0  0  0  0  0  0  0
    5.0812    0.5603    1.4983 H   0  0  0  0  0  0  0  0  0  0  0  0
    5.5195    2.6592    1.6032 C   0  0  1  0  0  0  0  0  0  0  0  0
    4.6796    3.1912    1.1400 H   0  0  0  0  0  0  0  0  0  0  0  0
    5.9596    3.3196    2.3556 H   0  0  0  0  0  0  0  0  0  0  0  0
    6.5280    2.3802    0.6732 O   0  0  0  0  0  0  0  0  0  0  0  0
    6.1439    1.8401   -0.0402 H   0  0  0  0  0  0  0  0  0  0  0  0
    5.9645    0.9625    3.3980 C   0  0  0  0  0  0  0  0  0  0  0  0
    5.5571    0.7560    4.5318 O   0  0  0  0  0  0  0  0  0  0  0  0
    7.2426    0.8808    3.0217 N   0  0  0  0  0  0  0  0  0  0  0  0
    7.4985    1.2272    2.1024 H   0  0  0  0  0  0  0  0  0  0  0  0
    8.3252    0.5516    3.9345 C   0  0  1  0  0  0  0  0  0  0  0  0
    7.9452   -0.2089    4.6273 H   0  0  0  0  0  0  0  0  0  0  0  0
    9.5138    0.0293    3.1451 C   0  0  1  0  0  0  0  0  0  0  0  0
    9.2188   -0.8093    2.5196 H   0  0  0  0  0  0  0  0  0  0  0  0
    9.9165    0.8251    2.5233 H   0  0  0  0  0  0  0  0  0  0  0  0
   10.2946   -0.2915    3.8284 H   0  0  0  0  0  0  0  0  0  0  0  0
    8.7217    1.8012    4.7574 C   0  0  0  0  0  0  0  0  0  0  0  0
    9.7557    2.4066    4.5752 O   0  0  0  0  0  0  0  0  0  0  0  0
    7.7996    2.1267    5.6784 N   0  0  0  0  0  0  0  0  0  0  0  0
    6.9326    1.6030    5.7135 H   0  0  0  0  0  0  0  0  0  0  0  0
    7.9287    3.2856    6.5278 C   0  0  1  0  0  0  0  0  0  0  0  0
    8.8983    3.7386    6.3276 H   0  0  0  0  0  0  0  0  0  0  0  0
    7.1394    4.0104    6.3181 H   0  0  0  0  0  0  0  0  0  0  0  0
    7.8730    2.9934    7.5776 H   0  0  0  0  0  0  0  0  0  0  0  0
  2  1  1  6
  2  4  1  0
  2  3  1  0
  2  5  1  0
  5  6  1  0
  5  7  1  0
  7  8  1  0
  7  9  1  0
  9 15  1  0
  9 10  1  6
  9 11  1  0
 11 12  1  1
 11 14  1  0
 11 13  1  0
 15 17  1  0
 15 16  2  0
 17 18  1  0
 17 19  1  0
 19 20  1  6
 19 26  1  0
 19 21  1  0
 21 24  1  0
 21 23  1  1
 21 22  1  0
 24 25  1  0
 26 28  1  0
 26 27  1  0
 28 29  1  0
 28 30  1  0
 30 32  1  0
 30 31  1  1
 30 36  1  0
 32 35  1  1
 32 34  1  0
 32 33  1  0
 36 37  1  0
 36 38  1  0
 38 39  1  0
 38 40  1  0
 40 43  1  1
 40 42  1  0
 40 41  1  0
M  END
$$$$
