 energy: -69.011768349095 gnorm: 0.000034416102 xtb: 6.5.1 (9af7eec)
     RDKit          3D

 43 42  0  0  0  0  0  0  0  0999 V2000
    1.9040    2.8690   -1.6020 H   0  0  0  0  0  0  0  0  0  0  0  0
    2.4659    1.9542   -1.4231 C   0  0  1  0  0  0  0  0  0  0  0  0
    3.4746    2.2171   -1.1144 H   0  0  0  0  0  0  0  0  0  0  0  0
    2.5043    1.3810   -2.3446 H   0  0  0  0  0  0  0  0  0  0  0  0
    1.7767    1.1433   -0.3552 C   0  0  0  0  0  0  0  0  0  0  0  0
    1.1683    0.1083   -0.5751 O   0  0  0  0  0  0  0  0  0  0  0  0
    1.8910    1.6383    0.8923 N   0  0  0  0  0  0  0  0  0  0  0  0
    2.2870    2.5522    1.0430 H   0  0  0  0  0  0  0  0  0  0  0  0
    1.2316    0.9921    2.0142 C   0  0  1  0  0  0  0  0  0  0  0  0
    1.6659   -0.0085    2.1358 H   0  0  0  0  0  0  0  0  0  0  0  0
    1.4169    1.8186    3.2772 C   0  0  2  0  0  0  0  0  0  0  0  0
    0.8974    2.7682    3.1675 H   0  0  0  0  0  0  0  0  0  0  0  0
    2.4730    1.9990    3.4654 H   0  0  0  0  0  0  0  0  0  0  0  0
    0.9945    1.2932    4.1293 H   0  0  0  0  0  0  0  0  0  0  0  0
   -0.2743    0.8753    1.6953 C   0  0  0  0  0  0  0  0  0  0  0  0
   -0.9678    1.8599    1.5684 O   0  0  0  0  0  0  0  0  0  0  0  0
   -0.7213   -0.3930    1.5935 N   0  0  0  0  0  0  0  0  0  0  0  0
   -0.0434   -1.1359    1.5405 H   0  0  0  0  0  0  0  0  0  0  0  0
   -2.1036   -0.7309    1.3308 C   0  0  1  0  0  0  0  0  0  0  0  0
   -2.1902   -1.8236    1.3270 H   0  0  0  0  0  0  0  0  0  0  0  0
   -3.0313   -0.1979    2.4535 C   0  0  1  0  0  0  0  0  0  0  0  0
   -2.5961   -0.4512    3.4245 H   0  0  0  0  0  0  0  0  0  0  0  0
   -3.0975    0.8942    2.3693 H   0  0  0  0  0  0  0  0  0  0  0  0
   -4.2910   -0.7944    2.4033 O   0  0  0  0  0  0  0  0  0  0  0  0
   -4.6411   -0.6183    1.5122 H   0  0  0  0  0  0  0  0  0  0  0  0
   -2.6372   -0.2329   -0.0187 C   0  0  0  0  0  0  0  0  0  0  0  0
   -3.8495   -0.2022   -0.2208 O   0  0  0  0  0  0  0  0  0  0  0  0
   -1.7418    0.1155   -0.9373 N   0  0  0  0  0  0  0  0  0  0  0  0
   -0.7439    0.0179   -0.7736 H   0  0  0  0  0  0  0  0  0  0  0  0
   -2.1326    0.7012   -2.2100 C   0  0  1  0  0  0  0  0  0  0  0  0
   -3.0616    1.2597   -2.0385 H   0  0  0  0  0  0  0  0  0  0  0  0
   -1.0329    1.6201   -2.7114 C   0  0  1  0  0  0  0  0  0  0  0  0
   -0.8250    2.3902   -1.9724 H   0  0  0  0  0  0  0  0  0  0  0  0
   -0.1349    1.0380   -2.8997 H   0  0  0  0  0  0  0  0  0  0  0  0
   -1.3406    2.0862   -3.6429 H   0  0  0  0  0  0  0  0  0  0  0  0
   -2.4312   -0.4161   -3.2353 C   0  0  0  0  0  0  0  0  0  0  0  0
   -1.7308   -0.6336   -4.2009 O   0  0  0  0  0  0  0  0  0  0  0  0
   -3.5470   -1.1006   -2.9334 N   0  0  0  0  0  0  0  0  0  0  0  0
   -4.0478   -0.8658   -2.0837 H   0  0  0  0  0  0  0  0  0  0  0  0
   -4.0126   -2.2163   -3.7191 C   0  0  1  0  0  0  0  0  0  0  0  0
   -3.3443   -2.3234   -4.5721 H   0  0  0  0  0  0  0  0  0  0  0  0
   -4.0008   -3.1363   -3.1312 H   0  0  0  0  0  0  0  0  0  0  0  0
   -5.0284   -2.0344   -4.0737 H   0  0  0  0  0  0  0  0  0  0  0  0
  2  1  1  6
  2  4  1  0
  2  3  1  0
  2  5  1  0
  5  6  1  0
  5  7  1  0
  7  8  1  0
  7  9  1  0
  9 15  1  0
  9 10  1  1
  9 11  1  0
 11 12  1  6
 11 14  1  0
 11 13  1  0
 15 17  1  0
 15 16  2  0
 17 18  1  0
 17 19  1  0
 19 20  1  6
 19 26  1  0
 19 21  1  0
 21 24  1  0
 21 23  1  1
 21 22  1  0
 24 25  1  0
 26 28  1  0
 26 27  1  0
 28 29  1  0
 28 30  1  0
 30 32  1  0
 30 31  1  1
 30 36  1  0
 32 35  1  6
 32 34  1  0
 32 33  1  0
 36 37  1  0
 36 38  1  0
 38 39  1  0
 38 40  1  0
 40 43  1  6
 40 42  1  0
 40 41  1  0
M  END
$$$$
