 energy: -39.302216735324 gnorm: 0.000040249663 xtb: 6.5.1 (9af7eec)
     RDKit          3D

 28 27  0  0  0  0  0  0  0  0999 V2000
    1.4767   -0.1399    0.3198 N   0  0  0  0  0  0  0  0  0  0  0  0
    0.1175    0.3085    0.1618 C   0  0  2  0  0  0  0  0  0  0  0  0
   -0.2071    1.5885    0.9573 C   0  0  0  0  0  0  0  0  0  0  0  0
   -1.2418    2.1934    0.7710 O   0  0  0  0  0  0  0  0  0  0  0  0
   -0.8948   -0.7859    0.5623 C   0  0  1  0  0  0  0  0  0  0  0  0
   -0.7530   -2.0064   -0.3436 C   0  0  2  0  0  0  0  0  0  0  0  0
   -0.7696   -1.1775    2.0339 C   0  0  1  0  0  0  0  0  0  0  0  0
    1.6387   -0.8846    0.9837 H   0  0  0  0  0  0  0  0  0  0  0  0
   -0.0646    0.5510   -0.8918 H   0  0  0  0  0  0  0  0  0  0  0  0
   -1.8852   -0.3446    0.4118 H   0  0  0  0  0  0  0  0  0  0  0  0
   -1.4855   -2.7615   -0.0699 H   0  0  0  0  0  0  0  0  0  0  0  0
    0.2388   -2.4444   -0.2552 H   0  0  0  0  0  0  0  0  0  0  0  0
   -0.9153   -1.7340   -1.3836 H   0  0  0  0  0  0  0  0  0  0  0  0
   -1.5663   -1.8695    2.2958 H   0  0  0  0  0  0  0  0  0  0  0  0
    0.1774   -1.6721    2.2430 H   0  0  0  0  0  0  0  0  0  0  0  0
   -0.8574   -0.3023    2.6734 H   0  0  0  0  0  0  0  0  0  0  0  0
    0.7220    1.9520    1.8600 N   0  0  0  0  0  0  0  0  0  0  0  0
    1.5692    1.4102    1.9394 H   0  0  0  0  0  0  0  0  0  0  0  0
    0.5907    3.1272    2.6853 C   0  0  1  0  0  0  0  0  0  0  0  0
    1.3969    3.8343    2.4820 H   0  0  0  0  0  0  0  0  0  0  0  0
   -0.3659    3.5895    2.4464 H   0  0  0  0  0  0  0  0  0  0  0  0
    0.6101    2.8579    3.7427 H   0  0  0  0  0  0  0  0  0  0  0  0
    2.5906    0.3191   -0.3043 C   0  0  0  0  0  0  0  0  0  0  0  0
    3.6796   -0.1409   -0.0280 O   0  0  0  0  0  0  0  0  0  0  0  0
    2.3790    1.4135   -1.3222 C   0  0  2  0  0  0  0  0  0  0  0  0
    1.8168    2.2400   -0.8941 H   0  0  0  0  0  0  0  0  0  0  0  0
    1.8280    1.0218   -2.1752 H   0  0  0  0  0  0  0  0  0  0  0  0
    3.3484    1.7664   -1.6620 H   0  0  0  0  0  0  0  0  0  0  0  0
  1 23  1  0
  1  2  1  0
  1  8  1  0
  2  5  1  0
  2  3  1  0
  2  9  1  6
  3 17  1  0
  3  4  1  0
  5 10  1  1
  5  6  1  0
  5  7  1  0
  6 12  1  6
  6 11  1  0
  6 13  1  0
  7 15  1  6
  7 14  1  0
  7 16  1  0
 17 18  1  0
 17 19  1  0
 19 21  1  6
 19 20  1  0
 19 22  1  0
 23 24  1  0
 23 25  1  0
 25 26  1  1
 25 27  1  0
 25 28  1  0
M  END
$$$$
