 energy: -39.304444850350 gnorm: 0.000036182997 xtb: 6.5.1 (9af7eec)
     RDKit          3D

 28 27  0  0  0  0  0  0  0  0999 V2000
    0.9217    0.9316   -0.4388 N   0  0  0  0  0  0  0  0  0  0  0  0
   -0.3092    0.1920   -0.2344 C   0  0  2  0  0  0  0  0  0  0  0  0
   -1.1272    0.3128   -1.5276 C   0  0  0  0  0  0  0  0  0  0  0  0
   -1.6445    1.3679   -1.8474 O   0  0  0  0  0  0  0  0  0  0  0  0
   -1.1066    0.7609    0.9482 C   0  0  1  0  0  0  0  0  0  0  0  0
   -2.3824   -0.0546    1.1442 C   0  0  2  0  0  0  0  0  0  0  0  0
   -0.2631    0.7508    2.2193 C   0  0  1  0  0  0  0  0  0  0  0  0
    0.8279    1.9337   -0.5024 H   0  0  0  0  0  0  0  0  0  0  0  0
   -0.0260   -0.8417   -0.0316 H   0  0  0  0  0  0  0  0  0  0  0  0
   -1.3840    1.7903    0.6982 H   0  0  0  0  0  0  0  0  0  0  0  0
   -2.9572    0.3428    1.9772 H   0  0  0  0  0  0  0  0  0  0  0  0
   -2.1415   -1.0943    1.3580 H   0  0  0  0  0  0  0  0  0  0  0  0
   -3.0023   -0.0153    0.2519 H   0  0  0  0  0  0  0  0  0  0  0  0
   -0.8263    1.1758    3.0465 H   0  0  0  0  0  0  0  0  0  0  0  0
    0.0149   -0.2685    2.4790 H   0  0  0  0  0  0  0  0  0  0  0  0
    0.6476    1.3299    2.0892 H   0  0  0  0  0  0  0  0  0  0  0  0
   -1.2100   -0.7733   -2.3150 N   0  0  0  0  0  0  0  0  0  0  0  0
   -1.7475   -0.6348   -3.1597 H   0  0  0  0  0  0  0  0  0  0  0  0
   -0.6084   -2.0742   -2.1216 C   0  0  1  0  0  0  0  0  0  0  0  0
   -0.6485   -2.6187   -3.0618 H   0  0  0  0  0  0  0  0  0  0  0  0
    0.4371   -1.9783   -1.8226 H   0  0  0  0  0  0  0  0  0  0  0  0
   -1.1488   -2.6497   -1.3647 H   0  0  0  0  0  0  0  0  0  0  0  0
    2.0682    0.3363   -0.8344 C   0  0  0  0  0  0  0  0  0  0  0  0
    2.1770   -0.8694   -0.9455 O   0  0  0  0  0  0  0  0  0  0  0  0
    3.1995    1.3063   -1.0958 C   0  0  2  0  0  0  0  0  0  0  0  0
    3.3587    1.9445   -0.2300 H   0  0  0  0  0  0  0  0  0  0  0  0
    2.9560    1.9320   -1.9521 H   0  0  0  0  0  0  0  0  0  0  0  0
    4.1078    0.7500   -1.3079 H   0  0  0  0  0  0  0  0  0  0  0  0
  1 23  1  0
  1  2  1  0
  1  8  1  0
  2  5  1  0
  2  3  1  0
  2  9  1  1
  3 17  1  0
  3  4  1  0
  5 10  1  6
  5  6  1  0
  5  7  1  0
  6 12  1  1
  6 11  1  0
  6 13  1  0
  7 15  1  1
  7 14  1  0
  7 16  1  0
 17 18  1  0
 17 19  1  0
 19 21  1  1
 19 20  1  0
 19 22  1  0
 23 24  1  0
 23 25  1  0
 25 26  1  1
 25 27  1  0
 25 28  1  0
M  END
$$$$
