relax
     RDKit          3D

 16 15  0  0  1  0  0  0  0  0999 V2000
   -0.0731   -0.1067    0.2393 N   0  0  0  0  0  0  0  0  0  0  0  0
    1.3520    0.1252    0.0616 C   0  0  2  0  0  0  0  0  0  0  0  0
    2.0312    0.2548    1.4282 C   0  0  0  0  0  0  0  0  0  0  0  0
    3.1214    0.7261    1.5780 O   0  0  0  0  0  0  0  0  0  0  0  0
    1.3063   -0.2454    2.4207 O   0  0  0  0  0  0  0  0  0  0  0  0
    1.7315    1.2843   -0.8397 C   0  0  2  0  0  0  0  0  0  0  0  0
    1.3439    1.0344   -2.2663 C   0  0  0  0  0  0  0  0  0  0  0  0
    0.8735    0.0126   -2.6906 O   0  0  0  0  0  0  0  0  0  0  0  0
    1.5846    2.0985   -3.0427 O   0  0  0  0  0  0  0  0  0  0  0  0
    1.7680   -0.7891   -0.3722 H   0  0  0  0  0  0  0  0  0  0  0  0
    2.8089    1.4570   -0.7912 H   0  0  0  0  0  0  0  0  0  0  0  0
    1.2690    2.2174   -0.5058 H   0  0  0  0  0  0  0  0  0  0  0  0
   -0.4493   -0.6066   -0.5537 H   0  0  0  0  0  0  0  0  0  0  0  0
   -0.5801    0.7657    0.3183 H   0  0  0  0  0  0  0  0  0  0  0  0
    0.4617   -0.5171    2.0035 H   0  0  0  0  0  0  0  0  0  0  0  0
    1.3256    1.8597   -3.9410 H   0  0  0  0  0  0  0  0  0  0  0  0
  1 14  1  0
  2 10  1  6
  2  1  1  0
  2  3  1  0
  3  4  2  0
  3  5  1  0
  6 11  1  6
  6 12  1  0
  6  2  1  0
  7  6  1  0
  8  7  2  0
  9  7  1  0
 13  1  1  0
 15  5  1  0
 16  9  1  0
M  END
$$$$
