relax
     RDKit          3D

 16 15  0  0  1  0  0  0  0  0999 V2000
   -0.0399   -0.0402    0.0045 N   0  0  0  0  0  0  0  0  0  0  0  0
    1.4010    0.0273    0.0176 C   0  0  2  0  0  0  0  0  0  0  0  0
    1.9816    0.1750    1.4177 C   0  0  0  0  0  0  0  0  0  0  0  0
    1.3466    0.1033    2.4323 O   0  0  0  0  0  0  0  0  0  0  0  0
    3.3054    0.3881    1.4005 O   0  0  0  0  0  0  0  0  0  0  0  0
    1.8962    1.1366   -0.9063 C   0  0  2  0  0  0  0  0  0  0  0  0
    3.2636    0.8729   -1.4715 C   0  0  0  0  0  0  0  0  0  0  0  0
    3.7198   -0.2109   -1.7034 O   0  0  0  0  0  0  0  0  0  0  0  0
    3.9152    2.0122   -1.7483 O   0  0  0  0  0  0  0  0  0  0  0  0
    1.8009   -0.9118   -0.3784 H   0  0  0  0  0  0  0  0  0  0  0  0
    1.8734    2.1179   -0.4319 H   0  0  0  0  0  0  0  0  0  0  0  0
    1.2121    1.1729   -1.7583 H   0  0  0  0  0  0  0  0  0  0  0  0
   -0.4321    0.7897    0.4320 H   0  0  0  0  0  0  0  0  0  0  0  0
   -0.3522   -0.8132    0.5764 H   0  0  0  0  0  0  0  0  0  0  0  0
    3.5969    0.4497    2.3180 H   0  0  0  0  0  0  0  0  0  0  0  0
    4.7556    1.7615   -2.1503 H   0  0  0  0  0  0  0  0  0  0  0  0
  1  2  1  0
  1 13  1  0
  1 14  1  0
  2 10  1  6
  2  3  1  0
  3  4  2  0
  5  3  1  0
  5 15  1  0
  6 11  1  1
  6  2  1  0
  7  6  1  0
  8  7  2  0
  9  7  1  0
 12  6  1  0
 16  9  1  0
M  END
$$$$
