 energy: -42.632382019850 gnorm: 0.000046594839 xtb: 6.5.1 (9af7eec)
     RDKit          3D

 26 25  0  0  0  0  0  0  0  0999 V2000
    1.2124   -0.3421    0.1491 N   0  0  0  0  0  0  0  0  0  0  0  0
   -0.1173    0.1525   -0.1017 C   0  0  2  0  0  0  0  0  0  0  0  0
   -0.0735    1.6861   -0.1164 C   0  0  0  0  0  0  0  0  0  0  0  0
    0.9793    2.2864   -0.0042 O   0  0  0  0  0  0  0  0  0  0  0  0
   -1.1360   -0.3716    0.9368 C   0  0  2  0  0  0  0  0  0  0  0  0
   -2.3669   -0.8004    0.1571 C   0  0  1  0  0  0  0  0  0  0  0  0
   -3.2810   -0.0329   -0.0853 O   0  0  0  0  0  0  0  0  0  0  0  0
   -2.2923   -2.0626   -0.2881 N   0  0  0  0  0  0  0  0  0  0  0  0
    1.9091    0.3780    0.3011 H   0  0  0  0  0  0  0  0  0  0  0  0
   -0.4275   -0.1839   -1.1034 H   0  0  0  0  0  0  0  0  0  0  0  0
   -1.3923    0.4043    1.6581 H   0  0  0  0  0  0  0  0  0  0  0  0
   -0.7106   -1.2228    1.4646 H   0  0  0  0  0  0  0  0  0  0  0  0
   -3.0050   -2.4092   -0.9100 H   0  0  0  0  0  0  0  0  0  0  0  0
   -1.4056   -2.5512   -0.2378 H   0  0  0  0  0  0  0  0  0  0  0  0
   -1.2756    2.2526   -0.2676 N   0  0  0  0  0  0  0  0  0  0  0  0
   -2.1072    1.6714   -0.3086 H   0  0  0  0  0  0  0  0  0  0  0  0
   -1.4612    3.6832   -0.2962 C   0  0  1  0  0  0  0  0  0  0  0  0
   -2.0862    4.0050    0.5383 H   0  0  0  0  0  0  0  0  0  0  0  0
   -0.4810    4.1509   -0.2170 H   0  0  0  0  0  0  0  0  0  0  0  0
   -1.9344    3.9855   -1.2314 H   0  0  0  0  0  0  0  0  0  0  0  0
    1.5200   -1.6455    0.0159 C   0  0  0  0  0  0  0  0  0  0  0  0
    0.6730   -2.4874   -0.2365 O   0  0  0  0  0  0  0  0  0  0  0  0
    2.9802   -1.9654    0.2258 C   0  0  1  0  0  0  0  0  0  0  0  0
    3.5811   -1.4555   -0.5238 H   0  0  0  0  0  0  0  0  0  0  0  0
    3.2973   -1.6307    1.2106 H   0  0  0  0  0  0  0  0  0  0  0  0
    3.1321   -3.0373    0.1408 H   0  0  0  0  0  0  0  0  0  0  0  0
  1  9  1  0
  1 21  1  0
  1  2  1  0
  2  5  1  0
  2  3  1  0
  2 10  1  6
  3  4  1  0
  3 15  1  0
  5 12  1  1
  5  6  1  0
  5 11  1  0
  6  7  1  6
  6  8  1  0
  8 14  1  0
  8 13  1  0
 15 17  1  0
 15 16  1  0
 17 20  1  6
 17 19  1  0
 17 18  1  0
 21 23  1  0
 21 22  1  0
 23 26  1  1
 23 24  1  0
 23 25  1  0
M  END
$$$$
