-36.20614458
     RDKit          3D

 23 22  0  0  1  0  0  0  0  0999 V2000
   -1.1151    0.4637    0.6948 N   0  0  0  0  0  0  0  0  0  0  0  0
   -0.2939   -0.1536   -0.3089 C   0  0  2  0  0  0  0  0  0  0  0  0
    0.4819   -1.2875    0.3939 C   0  0  0  0  0  0  0  0  0  0  0  0
    0.5127   -1.3527    1.6059 O   0  0  0  0  0  0  0  0  0  0  0  0
    0.6753    0.8697   -0.9407 C   0  0  1  0  0  0  0  0  0  0  0  0
    2.3538    0.8543   -0.2100 S   0  0  0  0  0  0  0  0  0  0  0  0
   -0.8215    0.2699    1.6490 H   0  0  0  0  0  0  0  0  0  0  0  0
   -0.9249   -0.5854   -1.0945 H   0  0  0  0  0  0  0  0  0  0  0  0
    0.8349    0.6733   -1.9995 H   0  0  0  0  0  0  0  0  0  0  0  0
    0.2769    1.8772   -0.8213 H   0  0  0  0  0  0  0  0  0  0  0  0
   -2.2860    1.1296    0.5438 C   0  0  0  0  0  0  0  0  0  0  0  0
   -2.8809    1.5673    1.5031 O   0  0  0  0  0  0  0  0  0  0  0  0
    1.0822   -2.2053   -0.3807 N   0  0  0  0  0  0  0  0  0  0  0  0
    1.2718   -2.1960   -1.8093 C   0  0  1  0  0  0  0  0  0  0  0  0
    2.1040   -1.5465   -2.0962 H   0  0  0  0  0  0  0  0  0  0  0  0
    1.4925   -3.2094   -2.1385 H   0  0  0  0  0  0  0  0  0  0  0  0
    0.3682   -1.8601   -2.3159 H   0  0  0  0  0  0  0  0  0  0  0  0
    1.6318   -2.8766    0.1389 H   0  0  0  0  0  0  0  0  0  0  0  0
   -2.7859    1.2875   -0.8778 C   0  0  2  0  0  0  0  0  0  0  0  0
   -3.0563    0.3139   -1.2832 H   0  0  0  0  0  0  0  0  0  0  0  0
   -2.0318    1.7387   -1.5170 H   0  0  0  0  0  0  0  0  0  0  0  0
   -3.6708    1.9171   -0.8623 H   0  0  0  0  0  0  0  0  0  0  0  0
    1.9740    1.0833    1.0425 H   0  0  0  0  0  0  0  0  0  0  0  0
  1  7  1  0
  2  8  1  6
  2  3  1  0
  2  1  1  0
  3  4  2  0
  5 10  1  6
  5  2  1  0
  5  6  1  0
  6 23  1  0
  9  5  1  0
 11  1  1  0
 11 12  2  0
 13 18  1  0
 13  3  1  0
 14 13  1  0
 14 15  1  1
 16 14  1  0
 17 14  1  0
 19 22  1  1
 19 11  1  0
 20 19  1  0
 21 19  1  0
M  END
$$$$
