-36.20295578
     RDKit          3D

 23 22  0  0  1  0  0  0  0  0999 V2000
   -0.9269    1.0913    0.2737 N   0  0  0  0  0  0  0  0  0  0  0  0
   -0.0975    0.2559   -0.5587 C   0  0  2  0  0  0  0  0  0  0  0  0
    0.2253   -1.0622    0.1844 C   0  0  0  0  0  0  0  0  0  0  0  0
    0.0050   -1.1743    1.3711 O   0  0  0  0  0  0  0  0  0  0  0  0
    1.1788    1.0212   -0.9256 C   0  0  1  0  0  0  0  0  0  0  0  0
    2.5742    0.7174    0.2237 S   0  0  0  0  0  0  0  0  0  0  0  0
   -0.4467    1.6447    0.9715 H   0  0  0  0  0  0  0  0  0  0  0  0
   -0.6532    0.0269   -1.4744 H   0  0  0  0  0  0  0  0  0  0  0  0
    1.5606    0.7225   -1.9000 H   0  0  0  0  0  0  0  0  0  0  0  0
    0.9745    2.0926   -0.9439 H   0  0  0  0  0  0  0  0  0  0  0  0
   -2.2598    0.9504    0.5184 C   0  0  0  0  0  0  0  0  0  0  0  0
   -2.8044    1.6392    1.3504 O   0  0  0  0  0  0  0  0  0  0  0  0
    0.7125   -2.0854   -0.5440 N   0  0  0  0  0  0  0  0  0  0  0  0
    1.1709   -2.0893   -1.9104 C   0  0  1  0  0  0  0  0  0  0  0  0
    1.1671   -3.1143   -2.2768 H   0  0  0  0  0  0  0  0  0  0  0  0
    0.5086   -1.4982   -2.5410 H   0  0  0  0  0  0  0  0  0  0  0  0
    2.1882   -1.6950   -1.9932 H   0  0  0  0  0  0  0  0  0  0  0  0
    0.9677   -2.8902    0.0133 H   0  0  0  0  0  0  0  0  0  0  0  0
   -2.9937   -0.0535   -0.3405 C   0  0  2  0  0  0  0  0  0  0  0  0
   -2.5837   -1.0482   -0.1796 H   0  0  0  0  0  0  0  0  0  0  0  0
   -2.9085    0.2058   -1.3940 H   0  0  0  0  0  0  0  0  0  0  0  0
   -4.0420   -0.0479   -0.0569 H   0  0  0  0  0  0  0  0  0  0  0  0
    1.8858    0.8651    1.3518 H   0  0  0  0  0  0  0  0  0  0  0  0
  1 11  1  0
  1  7  1  0
  2  8  1  6
  2  3  1  0
  2  1  1  0
  3  4  2  0
  5  2  1  0
  5  6  1  0
  6 23  1  0
  5  9  1  6
 10  5  1  0
 11 12  2  0
 13 18  1  0
 13  3  1  0
 14 13  1  0
 14 15  1  6
 16 14  1  0
 17 14  1  0
 19 20  1  6
 19 22  1  0
 19 11  1  0
 21 19  1  0
M  END
$$$$
