-36.20212631
     RDKit          3D

 23 22  0  0  1  0  0  0  0  0999 V2000
   -1.3263   -0.0228    0.1014 N   0  0  0  0  0  0  0  0  0  0  0  0
    0.0786    0.0857   -0.1833 C   0  0  2  0  0  0  0  0  0  0  0  0
    0.7534   -1.2271   -0.5996 C   0  0  0  0  0  0  0  0  0  0  0  0
    1.5371   -1.2232   -1.5314 O   0  0  0  0  0  0  0  0  0  0  0  0
    0.8797    0.6956    0.9850 C   0  0  1  0  0  0  0  0  0  0  0  0
    2.4305    1.4599    0.3932 S   0  0  0  0  0  0  0  0  0  0  0  0
   -1.6494   -0.8073    0.6466 H   0  0  0  0  0  0  0  0  0  0  0  0
    0.1972    0.7511   -1.0454 H   0  0  0  0  0  0  0  0  0  0  0  0
    0.3117    1.5014    1.4504 H   0  0  0  0  0  0  0  0  0  0  0  0
    1.1325   -0.0446    1.7447 H   0  0  0  0  0  0  0  0  0  0  0  0
   -2.3164    0.8618   -0.2051 C   0  0  0  0  0  0  0  0  0  0  0  0
   -3.4497    0.6324    0.1577 O   0  0  0  0  0  0  0  0  0  0  0  0
    0.5474   -2.3589    0.1007 N   0  0  0  0  0  0  0  0  0  0  0  0
   -0.2434   -2.6393    1.2757 C   0  0  1  0  0  0  0  0  0  0  0  0
   -1.2542   -2.9674    1.0122 H   0  0  0  0  0  0  0  0  0  0  0  0
    0.2369   -3.4443    1.8318 H   0  0  0  0  0  0  0  0  0  0  0  0
   -0.3013   -1.7704    1.9290 H   0  0  0  0  0  0  0  0  0  0  0  0
    1.0353   -3.1518   -0.2965 H   0  0  0  0  0  0  0  0  0  0  0  0
   -1.9262    2.0832   -0.9984 C   0  0  2  0  0  0  0  0  0  0  0  0
   -1.5659    1.7924   -1.9832 H   0  0  0  0  0  0  0  0  0  0  0  0
   -1.1489    2.6480   -0.4896 H   0  0  0  0  0  0  0  0  0  0  0  0
   -2.8057    2.7096   -1.1168 H   0  0  0  0  0  0  0  0  0  0  0  0
    2.7473    0.4912   -0.4622 H   0  0  0  0  0  0  0  0  0  0  0  0
  1  7  1  0
  2  8  1  6
  2  1  1  0
  2  5  1  0
  3  2  1  0
  3 13  1  0
  4  3  2  0
  5  9  1  1
  5 10  1  0
  6  5  1  0
 11  1  1  0
 11 12  2  0
 13 14  1  0
 14 16  1  1
 14 17  1  0
 15 14  1  0
 18 13  1  0
 19 21  1  1
 19 11  1  0
 20 19  1  0
 22 19  1  0
 23  6  1  0
M  END
$$$$
