-36.20089852
     RDKit          3D

 23 22  0  0  1  0  0  0  0  0999 V2000
   -1.1435    0.2943   -0.3981 N   0  0  0  0  0  0  0  0  0  0  0  0
    0.1500   -0.3554   -0.4178 C   0  0  2  0  0  0  0  0  0  0  0  0
    0.2257   -1.5659    0.5328 C   0  0  0  0  0  0  0  0  0  0  0  0
   -0.3149   -1.5861    1.6175 O   0  0  0  0  0  0  0  0  0  0  0  0
    1.3130    0.5849   -0.0844 C   0  0  1  0  0  0  0  0  0  0  0  0
    1.4332    1.9592   -1.2829 S   0  0  0  0  0  0  0  0  0  0  0  0
   -1.7350    0.0780   -1.1897 H   0  0  0  0  0  0  0  0  0  0  0  0
    0.2889   -0.7056   -1.4444 H   0  0  0  0  0  0  0  0  0  0  0  0
    1.2277    0.9965    0.9174 H   0  0  0  0  0  0  0  0  0  0  0  0
    2.2605    0.0527   -0.1646 H   0  0  0  0  0  0  0  0  0  0  0  0
   -1.8419    0.9934    0.5483 C   0  0  0  0  0  0  0  0  0  0  0  0
   -2.9744    1.3344    0.2787 O   0  0  0  0  0  0  0  0  0  0  0  0
    0.9668   -2.6101    0.1077 N   0  0  0  0  0  0  0  0  0  0  0  0
    1.6188   -2.8069   -1.1658 C   0  0  1  0  0  0  0  0  0  0  0  0
    2.2706   -1.9679   -1.4121 H   0  0  0  0  0  0  0  0  0  0  0  0
    2.2302   -3.7039   -1.1062 H   0  0  0  0  0  0  0  0  0  0  0  0
    0.8930   -2.9402   -1.9734 H   0  0  0  0  0  0  0  0  0  0  0  0
    0.9737   -3.3903    0.7503 H   0  0  0  0  0  0  0  0  0  0  0  0
   -1.1685    1.3587    1.8433 C   0  0  2  0  0  0  0  0  0  0  0  0
   -0.6557    0.4992    2.2632 H   0  0  0  0  0  0  0  0  0  0  0  0
   -1.9361    1.6967    2.5343 H   0  0  0  0  0  0  0  0  0  0  0  0
   -0.4693    2.1782    1.6858 H   0  0  0  0  0  0  0  0  0  0  0  0
    0.1966    2.4106   -1.0897 H   0  0  0  0  0  0  0  0  0  0  0  0
  1 11  1  0
  2  8  1  6
  2  1  1  0
  2  5  1  0
  2  3  1  0
  3  4  2  0
  5  9  1  1
  6 23  1  0
  6  5  1  0
  7  1  1  0
 10  5  1  0
 11 19  1  0
 12 11  2  0
 13  3  1  0
 13 18  1  0
 14 16  1  1
 14 13  1  0
 15 14  1  0
 17 14  1  0
 19 20  1  1
 19 21  1  0
 22 19  1  0
M  END
$$$$
