-36.20797854
     RDKit          3D

 23 22  0  0  1  0  0  0  0  0999 V2000
   -0.7789    0.3630    0.8181 N   0  0  0  0  0  0  0  0  0  0  0  0
    0.1605   -0.3052   -0.0403 C   0  0  2  0  0  0  0  0  0  0  0  0
    0.4411   -1.6967    0.5539 C   0  0  0  0  0  0  0  0  0  0  0  0
    0.2700   -1.9090    1.7360 O   0  0  0  0  0  0  0  0  0  0  0  0
    1.5000    0.4479   -0.0758 C   0  0  1  0  0  0  0  0  0  0  0  0
    1.3592    2.0868   -0.8681 S   0  0  0  0  0  0  0  0  0  0  0  0
   -0.6612    0.1464    1.8031 H   0  0  0  0  0  0  0  0  0  0  0  0
   -0.2510   -0.3818   -1.0478 H   0  0  0  0  0  0  0  0  0  0  0  0
    1.8798    0.5873    0.9359 H   0  0  0  0  0  0  0  0  0  0  0  0
    2.2366   -0.0933   -0.6674 H   0  0  0  0  0  0  0  0  0  0  0  0
   -1.9190    1.0291    0.4970 C   0  0  0  0  0  0  0  0  0  0  0  0
   -2.6368    1.4681    1.3681 O   0  0  0  0  0  0  0  0  0  0  0  0
    0.8947   -2.6575   -0.2729 N   0  0  0  0  0  0  0  0  0  0  0  0
    1.2519   -2.5977   -1.6684 C   0  0  1  0  0  0  0  0  0  0  0  0
    2.3286   -2.4499   -1.7950 H   0  0  0  0  0  0  0  0  0  0  0  0
    0.9750   -3.5364   -2.1477 H   0  0  0  0  0  0  0  0  0  0  0  0
    0.7299   -1.7885   -2.1722 H   0  0  0  0  0  0  0  0  0  0  0  0
    1.1014   -3.5302    0.1961 H   0  0  0  0  0  0  0  0  0  0  0  0
   -2.2121    1.2081   -0.9772 C   0  0  2  0  0  0  0  0  0  0  0  0
   -1.3672    1.6469   -1.5020 H   0  0  0  0  0  0  0  0  0  0  0  0
   -3.0733    1.8627   -1.0751 H   0  0  0  0  0  0  0  0  0  0  0  0
   -2.4543    0.2457   -1.4251 H   0  0  0  0  0  0  0  0  0  0  0  0
    0.5500    2.6119    0.0481 H   0  0  0  0  0  0  0  0  0  0  0  0
  1  7  1  0
  2  8  1  6
  2  3  1  0
  2  1  1  0
  3  4  2  0
  5  2  1  0
  5  9  1  1
  6  5  1  0
  6 23  1  0
 10  5  1  0
 11  1  1  0
 11 12  2  0
 13 18  1  0
 13  3  1  0
 14 13  1  0
 14 15  1  1
 16 14  1  0
 17 14  1  0
 19 11  1  0
 19 20  1  6
 21 19  1  0
 22 19  1  0
M  END
$$$$
