-36.20797664
     RDKit          3D

 23 22  0  0  1  0  0  0  0  0999 V2000
   -0.8274    0.2403    0.2721 N   0  0  0  0  0  0  0  0  0  0  0  0
    0.3042    0.0026   -0.5906 C   0  0  2  0  0  0  0  0  0  0  0  0
    1.0012   -1.3039   -0.1687 C   0  0  0  0  0  0  0  0  0  0  0  0
    2.1499   -1.3338    0.2304 O   0  0  0  0  0  0  0  0  0  0  0  0
    1.2939    1.1760   -0.5645 C   0  0  1  0  0  0  0  0  0  0  0  0
    1.8381    1.6020    1.1252 S   0  0  0  0  0  0  0  0  0  0  0  0
   -0.6173    0.2398    1.2635 H   0  0  0  0  0  0  0  0  0  0  0  0
   -0.0484   -0.1259   -1.6197 H   0  0  0  0  0  0  0  0  0  0  0  0
    2.1761    0.9416   -1.1583 H   0  0  0  0  0  0  0  0  0  0  0  0
    0.8175    2.0768   -0.9496 H   0  0  0  0  0  0  0  0  0  0  0  0
   -2.0384    0.7769   -0.0407 C   0  0  0  0  0  0  0  0  0  0  0  0
   -2.8434    1.0141    0.8314 O   0  0  0  0  0  0  0  0  0  0  0  0
    0.2698   -2.4273   -0.2608 N   0  0  0  0  0  0  0  0  0  0  0  0
   -1.0725   -2.5849   -0.7668 C   0  0  1  0  0  0  0  0  0  0  0  0
   -1.7871   -2.0060   -0.1798 H   0  0  0  0  0  0  0  0  0  0  0  0
   -1.1356   -2.2699   -1.8117 H   0  0  0  0  0  0  0  0  0  0  0  0
   -1.3456   -3.6351   -0.7101 H   0  0  0  0  0  0  0  0  0  0  0  0
    0.7558   -3.2613    0.0381 H   0  0  0  0  0  0  0  0  0  0  0  0
   -2.3262    1.0014   -1.5091 C   0  0  2  0  0  0  0  0  0  0  0  0
   -1.5950    1.6787   -1.9440 H   0  0  0  0  0  0  0  0  0  0  0  0
   -3.3147    1.4431   -1.5961 H   0  0  0  0  0  0  0  0  0  0  0  0
   -2.3124    0.0610   -2.0556 H   0  0  0  0  0  0  0  0  0  0  0  0
    2.5173    0.4737    1.3020 H   0  0  0  0  0  0  0  0  0  0  0  0
  1  7  1  0
  2  8  1  6
  2  5  1  0
  2  3  1  0
  2  1  1  0
  3  4  2  0
  5  6  1  0
  6 23  1  0
  5  9  1  6
 10  5  1  0
 11  1  1  0
 11 12  2  0
 13  3  1  0
 13 18  1  0
 14 17  1  6
 14 13  1  0
 14 15  1  0
 16 14  1  0
 19 11  1  0
 19 20  1  6
 21 19  1  0
 22 19  1  0
M  END
$$$$
