IDISP/ant/struc.xyz
     RDKit          3D

 24 26  0  0  0  0  0  0  0  0999 V2000
   -0.1200    0.6803   -0.7534 C   0  0  0  0  0  0  0  0  0  0  0  0
    2.3207   -0.3642    0.2527 C   0  0  0  0  0  0  0  0  0  0  0  0
    0.3837   -0.6158   -1.2904 C   0  0  0  0  0  0  0  0  0  0  0  0
    1.3127    0.0730    1.2195 C   0  0  0  0  0  0  0  0  0  0  0  0
    0.1567    0.8317    0.7196 C   0  0  0  0  0  0  0  0  0  0  0  0
    1.8663   -0.6810   -1.1159 C   0  0  0  0  0  0  0  0  0  0  0  0
    0.1035    1.5604   -1.3502 H   0  0  0  0  0  0  0  0  0  0  0  0
    3.3079    0.1325    0.3245 H   0  0  0  0  0  0  0  0  0  0  0  0
   -0.0490   -0.7764   -2.7030 C   0  0  0  0  0  0  0  0  0  0  0  0
    1.0293   -0.8674    2.3486 C   0  0  0  0  0  0  0  0  0  0  0  0
   -1.1316    0.6034    1.4443 C   0  0  0  0  0  0  0  0  0  0  0  0
    2.6354    0.1216   -2.1273 C   0  0  0  0  0  0  0  0  0  0  0  0
    1.0555   -1.0819   -3.6665 C   0  0  0  0  0  0  0  0  0  0  0  0
    0.2595   -0.1335    3.4028 C   0  0  0  0  0  0  0  0  0  0  0  0
   -1.0267    0.4062    2.8970 C   0  0  0  0  0  0  0  0  0  0  0  0
    2.2368   -0.1610   -3.5460 C   0  0  0  0  0  0  0  0  0  0  0  0
   -0.7672   -0.0249   -3.0618 H   0  0  0  0  0  0  0  0  0  0  0  0
    0.5571   -1.8023    2.0139 H   0  0  0  0  0  0  0  0  0  0  0  0
   -1.7919   -0.0896    0.9004 H   0  0  0  0  0  0  0  0  0  0  0  0
    2.5143    1.1903   -1.8806 H   0  0  0  0  0  0  0  0  0  0  0  0
    0.6373   -0.9791   -4.7006 H   0  0  0  0  0  0  0  0  0  0  0  0
    0.8841    0.7148    3.7503 H   0  0  0  0  0  0  0  0  0  0  0  0
   -1.4584    1.1933    3.5281 H   0  0  0  0  0  0  0  0  0  0  0  0
    1.9692    0.7874   -4.0464 H   0  0  0  0  0  0  0  0  0  0  0  0
  1  7  1  0
  1  5  1  0
  1  3  1  0
  2  8  1  0
  2  6  1  0
  2  4  1  0
  3  9  1  0
  3  6  1  0
  4 10  1  0
  4  5  1  0
  5 11  1  0
  6 12  1  0
  9 13  1  0
  9 17  1  0
 10 18  1  0
 10 14  1  0
 11 19  1  0
 11 15  1  0
 12 20  1  0
 12 16  1  0
 13 21  1  0
 13 16  1  0
 14 22  1  0
 14 15  1  0
 15 23  1  0
 16 24  1  0
M  END
$$$$
