SCONF/C11/struc.xyz
     RDKit          3D

 26 26  0  0  0  0  0  0  0  0999 V2000
   -0.4019   -2.0276    0.9475 C   0  0  1  0  0  0  0  0  0  0  0  0
    1.0098   -1.4688    0.7942 C   0  0  1  0  0  0  0  0  0  0  0  0
    0.8971   -0.0394    0.3562 C   0  0  2  0  0  0  0  0  0  0  0  0
    0.5509    0.1214   -1.1035 C   0  0  2  0  0  0  0  0  0  0  0  0
    0.7844    1.6530   -1.2057 C   0  0  2  0  0  0  0  0  0  0  0  0
    1.0589    2.0293   -2.4956 O   0  0  0  0  0  0  0  0  0  0  0  0
    1.9411    1.8108   -0.2585 C   0  0  1  0  0  0  0  0  0  0  0  0
   -1.0579   -1.2417    1.8906 O   0  0  0  0  0  0  0  0  0  0  0  0
   -0.7321   -0.1955   -1.4456 O   0  0  0  0  0  0  0  0  0  0  0  0
    1.6128   -1.5625    2.0628 O   0  0  0  0  0  0  0  0  0  0  0  0
    2.1715    0.5773    0.3421 O   0  0  0  0  0  0  0  0  0  0  0  0
   -0.7835   -0.9691   -2.6133 C   0  0  1  0  0  0  0  0  0  0  0  0
   -0.9292   -2.0177    0.0033 H   0  0  0  0  0  0  0  0  0  0  0  0
   -0.3279   -3.0951    1.2972 H   0  0  0  0  0  0  0  0  0  0  0  0
    1.5279   -2.0527    0.0474 H   0  0  0  0  0  0  0  0  0  0  0  0
    0.2154    0.5779    0.9616 H   0  0  0  0  0  0  0  0  0  0  0  0
    1.3232   -0.3163   -1.7748 H   0  0  0  0  0  0  0  0  0  0  0  0
   -0.1505    2.1002   -0.8182 H   0  0  0  0  0  0  0  0  0  0  0  0
    0.1834    2.1146   -2.9708 H   0  0  0  0  0  0  0  0  0  0  0  0
    2.8076    2.1682   -0.8536 H   0  0  0  0  0  0  0  0  0  0  0  0
    1.7205    2.5875    0.5015 H   0  0  0  0  0  0  0  0  0  0  0  0
   -0.7702   -1.5034    2.8097 H   0  0  0  0  0  0  0  0  0  0  0  0
    1.8420   -2.5328    2.1687 H   0  0  0  0  0  0  0  0  0  0  0  0
   -0.2215   -1.9284   -2.4776 H   0  0  0  0  0  0  0  0  0  0  0  0
   -1.8373   -1.2498   -2.8197 H   0  0  0  0  0  0  0  0  0  0  0  0
   -0.3345   -0.3492   -3.4173 H   0  0  0  0  0  0  0  0  0  0  0  0
  1 13  1  6
  1  2  1  0
  1  8  1  0
  1 14  1  0
  2 10  1  0
  2  3  1  0
  2 15  1  6
  3 16  1  1
  3 11  1  0
  3  4  1  0
  4  9  1  0
  4  5  1  0
  4 17  1  6
  5  7  1  0
  5 18  1  1
  5  6  1  0
  6 19  1  0
  7 21  1  1
  7 11  1  0
  7 20  1  0
  8 22  1  0
  9 12  1  0
 10 23  1  0
 12 25  1  6
 12 26  1  0
 12 24  1  0
M  END
$$$$
