Coordinates from ORCA-job xal
     RDKit          3D

 28 27  0  0  0  0  0  0  0  0999 V2000
    1.3685   -1.4979   -0.4447 N   0  0  0  0  0  0  0  0  0  0  0  0
    2.2698   -1.9737   -0.0662 H   0  0  0  0  0  0  0  0  0  0  0  0
    1.0518   -0.3357    0.2064 C   0  0  1  0  0  0  0  0  0  0  0  0
    1.6886   -0.3617    1.1945 H   0  0  0  0  0  0  0  0  0  0  0  0
    1.3058    1.0249   -0.3041 C   0  0  2  0  0  0  0  0  0  0  0  0
   -0.3650   -0.3518    0.8455 C   0  0  0  0  0  0  0  0  0  0  0  0
    2.4532    1.1126   -0.3542 H   0  0  0  0  0  0  0  0  0  0  0  0
    1.1024    1.7796    0.5440 H   0  0  0  0  0  0  0  0  0  0  0  0
    0.7049    1.5257   -1.5474 C   0  0  2  0  0  0  0  0  0  0  0  0
   -0.5758    0.8950    1.4718 O   0  0  0  0  0  0  0  0  0  0  0  0
    1.1326    1.2242   -2.5041 H   0  0  0  0  0  0  0  0  0  0  0  0
    0.9794    2.6616   -1.5403 H   0  0  0  0  0  0  0  0  0  0  0  0
   -0.7768    1.5406   -1.6439 C   0  0  0  0  0  0  0  0  0  0  0  0
   -1.3784    2.6191   -1.0236 O   0  0  0  0  0  0  0  0  0  0  0  0
   -1.4299    0.3573   -1.5296 O   0  0  0  0  0  0  0  0  0  0  0  0
    0.9169   -2.0236   -1.6079 C   0  0  0  0  0  0  0  0  0  0  0  0
    1.1203   -1.4763   -2.9429 C   0  0  2  0  0  0  0  0  0  0  0  0
    0.7007   -3.4017   -1.6559 O   0  0  0  0  0  0  0  0  0  0  0  0
    2.0603   -0.8783   -3.0300 H   0  0  0  0  0  0  0  0  0  0  0  0
    0.2736   -0.8440   -3.2615 H   0  0  0  0  0  0  0  0  0  0  0  0
    1.1841   -2.3144   -3.7107 H   0  0  0  0  0  0  0  0  0  0  0  0
   -0.4881   -1.3584    1.8311 N   0  0  0  0  0  0  0  0  0  0  0  0
   -0.3619   -2.7085    1.4093 C   0  0  1  0  0  0  0  0  0  0  0  0
   -0.0555   -1.1438    2.7509 H   0  0  0  0  0  0  0  0  0  0  0  0
   -0.8413   -3.3851    2.1805 H   0  0  0  0  0  0  0  0  0  0  0  0
   -0.9270   -2.8345    0.4682 H   0  0  0  0  0  0  0  0  0  0  0  0
    0.6909   -3.0020    1.3530 H   0  0  0  0  0  0  0  0  0  0  0  0
   -1.4525    3.4218   -1.5873 H   0  0  0  0  0  0  0  0  0  0  0  0
  1  2  1  0
  1  3  1  0
  1 16  1  0
  3  6  1  0
  3  5  1  0
  3  4  1  1
  5  7  1  6
  5  8  1  0
  5  9  1  0
  6 10  1  0
  6 22  1  0
  9 13  1  0
  9 12  1  1
  9 11  1  0
 13 15  1  0
 13 14  1  0
 14 28  1  0
 16 17  1  0
 16 18  1  0
 17 20  1  6
 17 21  1  0
 17 19  1  0
 22 23  1  0
 22 24  1  0
 23 27  1  6
 23 26  1  0
 23 25  1  0
M  END
$$$$
