PCONF21/GLY_b/struc.xyz
     RDKit          3D

 39 38  0  0  0  0  0  0  0  0999 V2000
    2.6101    5.6900    1.3215 H   0  0  0  0  0  0  0  0  0  0  0  0
    2.4766    4.5871    1.0564 C   0  0  1  0  0  0  0  0  0  0  0  0
    3.3696    4.1178    1.5502 H   0  0  0  0  0  0  0  0  0  0  0  0
    2.5257    4.5793   -0.0328 H   0  0  0  0  0  0  0  0  0  0  0  0
    1.2116    4.1713    1.6811 C   0  0  0  0  0  0  0  0  0  0  0  0
    0.4177    5.1517    2.2010 O   0  0  0  0  0  0  0  0  0  0  0  0
    0.8317    2.8519    1.7720 N   0  0  0  0  0  0  0  0  0  0  0  0
    1.3105    2.2885    2.5250 H   0  0  0  0  0  0  0  0  0  0  0  0
    0.5432    2.0630    0.6094 C   0  0  1  0  0  0  0  0  0  0  0  0
   -0.2377    2.4607   -0.0465 H   0  0  0  0  0  0  0  0  0  0  0  0
    1.8233    1.9935   -0.2400 C   0  0  1  0  0  0  0  0  0  0  0  0
    1.7622    2.6271   -1.1331 H   0  0  0  0  0  0  0  0  0  0  0  0
    2.7193    2.1891    0.3622 H   0  0  0  0  0  0  0  0  0  0  0  0
    1.9796    0.9490   -0.6428 H   0  0  0  0  0  0  0  0  0  0  0  0
    0.2232    0.6501    0.9629 C   0  0  0  0  0  0  0  0  0  0  0  0
    1.1904   -0.0437    1.6141 O   0  0  0  0  0  0  0  0  0  0  0  0
   -0.8401   -0.0150    0.3826 N   0  0  0  0  0  0  0  0  0  0  0  0
   -1.3700   -0.6948    0.9203 H   0  0  0  0  0  0  0  0  0  0  0  0
   -0.8179   -0.2033   -1.0479 C   0  0  1  0  0  0  0  0  0  0  0  0
   -1.0423    0.8316   -1.4769 H   0  0  0  0  0  0  0  0  0  0  0  0
    0.1849   -0.4322   -1.4504 H   0  0  0  0  0  0  0  0  0  0  0  0
   -1.8760   -1.1426   -1.4697 C   0  0  0  0  0  0  0  0  0  0  0  0
   -3.1559   -0.8877   -1.2358 O   0  0  0  0  0  0  0  0  0  0  0  0
   -1.4683   -2.2535   -2.2582 N   0  0  0  0  0  0  0  0  0  0  0  0
   -2.3036   -2.7948   -2.5920 H   0  0  0  0  0  0  0  0  0  0  0  0
   -0.5626   -3.1001   -1.4977 C   0  0  1  0  0  0  0  0  0  0  0  0
    0.2033   -2.3891   -1.0540 H   0  0  0  0  0  0  0  0  0  0  0  0
   -1.2589   -3.7520   -0.3287 C   0  0  1  0  0  0  0  0  0  0  0  0
   -0.6159   -3.8151    0.5857 H   0  0  0  0  0  0  0  0  0  0  0  0
   -2.2314   -3.3051   -0.1256 H   0  0  0  0  0  0  0  0  0  0  0  0
   -1.4477   -4.8406   -0.5774 H   0  0  0  0  0  0  0  0  0  0  0  0
    0.1921   -4.0842   -2.3057 C   0  0  0  0  0  0  0  0  0  0  0  0
   -0.5051   -4.9850   -3.0356 O   0  0  0  0  0  0  0  0  0  0  0  0
    1.4408   -3.6272   -2.8069 N   0  0  0  0  0  0  0  0  0  0  0  0
    1.8750   -4.3647   -3.3823 H   0  0  0  0  0  0  0  0  0  0  0  0
    2.3843   -3.2837   -1.7533 C   0  0  1  0  0  0  0  0  0  0  0  0
    1.9508   -3.3598   -0.7375 H   0  0  0  0  0  0  0  0  0  0  0  0
    3.2800   -3.9337   -1.7504 H   0  0  0  0  0  0  0  0  0  0  0  0
    2.6836   -2.2336   -1.9099 H   0  0  0  0  0  0  0  0  0  0  0  0
  2  1  1  1
  2  3  1  0
  2  4  1  0
  2  5  1  0
  5  7  1  0
  5  6  1  0
  7  8  1  0
  7  9  1  0
  9 15  1  0
  9 11  1  0
  9 10  1  6
 11 12  1  6
 11 14  1  0
 11 13  1  0
 15 16  1  0
 15 17  1  0
 17 19  1  0
 17 18  1  0
 19 20  1  6
 19 21  1  0
 19 22  1  0
 22 24  1  0
 22 23  1  0
 24 25  1  0
 24 26  1  0
 26 32  1  0
 26 28  1  0
 26 27  1  1
 28 29  1  1
 28 31  1  0
 28 30  1  0
 32 33  1  0
 32 34  1  0
 34 36  1  0
 34 35  1  0
 36 39  1  6
 36 37  1  0
 36 38  1  0
M  END
$$$$
