ICONF/H2S2O7_1/struc.xyz
     RDKit          3D

 11 10  0  0  0  0  0  0  0  0999 V2000
   -0.6292   -0.5775    0.9965 O   0  0  0  0  0  0  0  0  0  0  0  0
   -0.0602    0.1512   -0.4401 S   0  0  1  0  0  0  0  0  0  0  0  0
   -0.6196   -0.7406   -1.7779 O   0  0  0  0  0  0  0  0  0  0  0  0
   -0.6493    1.7447   -0.4683 O   0  0  0  0  0  0  0  0  0  0  0  0
    1.6326    0.2269   -0.4409 O   0  0  0  0  0  0  0  0  0  0  0  0
    2.1990    0.8714    1.0120 S   0  0  1  0  0  0  0  0  0  0  0  0
    1.0552    1.9726    1.5978 O   0  0  0  0  0  0  0  0  0  0  0  0
    2.4264   -0.3464    2.1907 O   0  0  0  0  0  0  0  0  0  0  0  0
    3.6912    1.6600    0.7312 O   0  0  0  0  0  0  0  0  0  0  0  0
   -0.2360   -1.4962    1.0043 H   0  0  0  0  0  0  0  0  0  0  0  0
    0.2131    1.4932    1.7131 H   0  0  0  0  0  0  0  0  0  0  0  0
  1 10  1  0
  1  2  1  0
  2  5  1  0
  2  4  1  6
  2  3  1  0
  5  6  1  0
  6  9  1  6
  6  8  1  0
  6  7  1  0
  7 11  1  0
M  END
$$$$
