ICONF/H4P2O7_2/struc.xyz
     RDKit          3D

 13 12  0  0  0  0  0  0  0  0999 V2000
   -0.3826   -1.1486   -0.0698 O   0  0  0  0  0  0  0  0  0  0  0  0
   -0.3804    0.2321   -1.0194 P   0  0  0  0  0  0  0  0  0  0  0  0
    0.8890    0.1339   -2.0886 O   0  0  0  0  0  0  0  0  0  0  0  0
   -0.2084    1.5681   -0.0518 O   0  0  0  0  0  0  0  0  0  0  0  0
    1.1972    1.5934    0.8107 P   0  0  0  0  0  0  0  0  0  0  0  0
    0.8872    1.9198    2.4155 O   0  0  0  0  0  0  0  0  0  0  0  0
    2.2007    2.8080    0.2134 O   0  0  0  0  0  0  0  0  0  0  0  0
    1.9878    0.1349    0.6803 O   0  0  0  0  0  0  0  0  0  0  0  0
   -1.8141    0.3438   -1.8411 O   0  0  0  0  0  0  0  0  0  0  0  0
   -1.2739   -1.2281    0.3464 H   0  0  0  0  0  0  0  0  0  0  0  0
    2.3641    2.5981   -0.7452 H   0  0  0  0  0  0  0  0  0  0  0  0
    2.9628    0.2991    0.8445 H   0  0  0  0  0  0  0  0  0  0  0  0
   -2.2465    1.2369   -1.8200 H   0  0  0  0  0  0  0  0  0  0  0  0
  1 10  1  0
  1  2  1  0
  2  4  1  0
  2  9  1  0
  2  3  1  0
  4  5  1  0
  5  8  1  0
  5  7  1  0
  5  6  1  0
  7 11  1  0
  8 12  1  0
  9 13  1  0
M  END
$$$$
