Coordinates from ORCA-job xau
     RDKit          3D

 29 29  0  0  0  0  0  0  0  0999 V2000
    1.9330   -0.9920   -0.9167 N   0  0  0  0  0  0  0  0  0  0  0  0
    2.4431   -1.9164   -0.8902 H   0  0  0  0  0  0  0  0  0  0  0  0
    0.8245   -1.0349   -0.0935 C   0  0  1  0  0  0  0  0  0  0  0  0
    1.2384   -0.7102    0.9561 H   0  0  0  0  0  0  0  0  0  0  0  0
   -0.3854   -0.2195   -0.3576 C   0  0  1  0  0  0  0  0  0  0  0  0
    0.4377   -2.4718    0.1686 C   0  0  0  0  0  0  0  0  0  0  0  0
   -0.6352   -0.3477   -1.4355 H   0  0  0  0  0  0  0  0  0  0  0  0
   -1.2148   -0.3643    0.3086 H   0  0  0  0  0  0  0  0  0  0  0  0
    0.0738    1.3408   -0.2500 C   0  0  1  0  0  0  0  0  0  0  0  0
    1.5256   -3.0996    0.7948 O   0  0  0  0  0  0  0  0  0  0  0  0
   -1.3374    1.9224   -0.5644 N   0  0  0  0  0  0  0  0  0  0  0  0
    0.0134    1.5368    1.3603 C   0  0  0  0  0  0  0  0  0  0  0  0
   -1.6805    1.4466   -1.3888 H   0  0  0  0  0  0  0  0  0  0  0  0
   -2.0161    1.9485    0.6296 C   0  0  0  0  0  0  0  0  0  0  0  0
   -1.0441    2.4706    1.5380 N   0  0  0  0  0  0  0  0  0  0  0  0
   -0.0394    0.5994    1.8579 H   0  0  0  0  0  0  0  0  0  0  0  0
   -2.5622    1.0745    0.9788 H   0  0  0  0  0  0  0  0  0  0  0  0
    2.7711    0.0278   -1.2209 C   0  0  0  0  0  0  0  0  0  0  0  0
    2.4345    1.2382   -1.9593 C   0  0  2  0  0  0  0  0  0  0  0  0
    4.0898   -0.3910   -1.3994 O   0  0  0  0  0  0  0  0  0  0  0  0
    3.2887    1.4216   -2.7153 H   0  0  0  0  0  0  0  0  0  0  0  0
    2.4974    2.2021   -1.3723 H   0  0  0  0  0  0  0  0  0  0  0  0
    1.5471    1.2033   -2.6318 H   0  0  0  0  0  0  0  0  0  0  0  0
    0.0478   -3.2287   -0.9480 N   0  0  0  0  0  0  0  0  0  0  0  0
   -1.1523   -2.8448   -1.6400 C   0  0  1  0  0  0  0  0  0  0  0  0
    0.7922   -3.3288   -1.7046 H   0  0  0  0  0  0  0  0  0  0  0  0
   -1.8444   -2.2988   -0.9684 H   0  0  0  0  0  0  0  0  0  0  0  0
   -0.9722   -2.3559   -2.6070 H   0  0  0  0  0  0  0  0  0  0  0  0
   -1.6604   -3.8425   -1.8779 H   0  0  0  0  0  0  0  0  0  0  0  0
  1  2  1  0
  1 18  1  0
  1  3  1  0
  3  6  1  0
  3  4  1  1
  3  5  1  0
  5  9  1  0
  5  8  1  1
  5  7  1  0
  6 10  1  0
  6 24  1  0
  9 11  1  0
  9 12  1  1
 11 14  1  0
 11 13  1  0
 12 15  1  0
 12 16  1  0
 14 17  1  0
 14 15  1  0
 18 19  1  0
 18 20  1  0
 19 23  1  6
 19 21  1  0
 19 22  1  0
 24 25  1  0
 24 26  1  0
 25 29  1  6
 25 28  1  0
 25 27  1  0
M  END
$$$$
