Coordinates from ORCA-job xbm
     RDKit          3D

 29 28  0  0  0  0  0  0  0  0999 V2000
   -0.1633   -0.9079   -0.4638 N   0  0  0  0  0  0  0  0  0  0  0  0
   -0.6350   -0.5101    0.3758 H   0  0  0  0  0  0  0  0  0  0  0  0
    0.9068   -0.0685   -0.8912 C   0  0  1  0  0  0  0  0  0  0  0  0
    0.5546    0.9673   -1.1504 H   0  0  0  0  0  0  0  0  0  0  0  0
    1.9449    0.0038    0.1605 C   0  0  2  0  0  0  0  0  0  0  0  0
    2.8745    0.5443   -0.1770 H   0  0  0  0  0  0  0  0  0  0  0  0
    2.3208   -1.0461    0.3370 H   0  0  0  0  0  0  0  0  0  0  0  0
    1.4232    0.5813    1.4466 C   0  0  2  0  0  0  0  0  0  0  0  0
    2.2950    0.5227    2.1714 H   0  0  0  0  0  0  0  0  0  0  0  0
    0.6805   -0.1186    1.9137 H   0  0  0  0  0  0  0  0  0  0  0  0
    0.8732    2.2556    1.3616 S   0  0  0  0  0  0  0  0  0  0  0  0
   -0.5882    2.6321    0.4352 C   0  0  2  0  0  0  0  0  0  0  0  0
   -0.2909    3.0632   -0.5646 H   0  0  0  0  0  0  0  0  0  0  0  0
   -1.2184    3.4089    0.9633 H   0  0  0  0  0  0  0  0  0  0  0  0
   -1.1951    1.7390    0.2365 H   0  0  0  0  0  0  0  0  0  0  0  0
    1.4747   -0.5813   -2.2237 C   0  0  0  0  0  0  0  0  0  0  0  0
    2.5688    0.2532   -2.5849 O   0  0  0  0  0  0  0  0  0  0  0  0
    0.5295   -0.4160   -3.2784 N   0  0  0  0  0  0  0  0  0  0  0  0
    0.4093    0.5929   -3.5393 H   0  0  0  0  0  0  0  0  0  0  0  0
    0.3347   -2.2298   -0.2639 C   0  0  0  0  0  0  0  0  0  0  0  0
    1.3626   -2.6464   -1.0397 O   0  0  0  0  0  0  0  0  0  0  0  0
   -0.6340   -3.2390    0.1856 C   0  0  2  0  0  0  0  0  0  0  0  0
   -1.4273   -2.7732    0.7861 H   0  0  0  0  0  0  0  0  0  0  0  0
   -0.0982   -3.9662    0.8634 H   0  0  0  0  0  0  0  0  0  0  0  0
   -1.0719   -3.8779   -0.6183 H   0  0  0  0  0  0  0  0  0  0  0  0
   -0.6903   -1.1331   -3.1893 C   0  0  1  0  0  0  0  0  0  0  0  0
   -0.4629   -2.2198   -3.0191 H   0  0  0  0  0  0  0  0  0  0  0  0
   -1.4043   -0.8200   -2.4222 H   0  0  0  0  0  0  0  0  0  0  0  0
   -1.2596   -1.0245   -4.1596 H   0  0  0  0  0  0  0  0  0  0  0  0
  1  3  1  0
  1 20  1  0
  1  2  1  0
  3  4  1  6
  3  5  1  0
  3 16  1  0
  5  8  1  0
  5  7  1  1
  5  6  1  0
  8  9  1  1
  8 10  1  0
  8 11  1  0
 11 12  1  0
 12 14  1  1
 12 13  1  0
 12 15  1  0
 16 18  1  0
 16 17  1  0
 18 19  1  0
 18 26  1  0
 20 21  1  0
 20 22  1  0
 22 24  1  1
 22 23  1  0
 22 25  1  0
 26 27  1  1
 26 28  1  0
 26 29  1  0
M  END
$$$$
