IDISP/octane2/struc.xyz
     RDKit          3D

 26 25  0  0  0  0  0  0  0  0999 V2000
   -2.7627    0.4546   -0.9065 C   0  0  1  0  0  0  0  0  0  0  0  0
   -1.5381   -0.0936   -1.5925 C   0  0  2  0  0  0  0  0  0  0  0  0
   -0.8097   -1.1056   -0.7620 C   0  0  1  0  0  0  0  0  0  0  0  0
   -0.3332   -0.5385    0.5541 C   0  0  2  0  0  0  0  0  0  0  0  0
    0.6044    0.6077    0.3951 C   0  0  1  0  0  0  0  0  0  0  0  0
    1.8523    0.3127   -0.3453 C   0  0  2  0  0  0  0  0  0  0  0  0
    2.7028   -0.7600    0.2891 C   0  0  1  0  0  0  0  0  0  0  0  0
    3.9569   -1.0045   -0.5229 C   0  0  1  0  0  0  0  0  0  0  0  0
   -3.3865    0.9465   -1.6864 H   0  0  0  0  0  0  0  0  0  0  0  0
   -3.3461   -0.4154   -0.5401 H   0  0  0  0  0  0  0  0  0  0  0  0
   -2.5489    1.1474   -0.0922 H   0  0  0  0  0  0  0  0  0  0  0  0
   -0.8399    0.6965   -1.9046 H   0  0  0  0  0  0  0  0  0  0  0  0
   -1.8853   -0.6076   -2.5137 H   0  0  0  0  0  0  0  0  0  0  0  0
   -1.4415   -1.9881   -0.5296 H   0  0  0  0  0  0  0  0  0  0  0  0
    0.1069   -1.3949   -1.3287 H   0  0  0  0  0  0  0  0  0  0  0  0
    0.0719   -1.3269    1.2170 H   0  0  0  0  0  0  0  0  0  0  0  0
   -1.2470   -0.1525    1.0745 H   0  0  0  0  0  0  0  0  0  0  0  0
    0.0674    1.4191   -0.1367 H   0  0  0  0  0  0  0  0  0  0  0  0
    0.8113    1.0109    1.4178 H   0  0  0  0  0  0  0  0  0  0  0  0
    2.4514    1.2449   -0.4065 H   0  0  0  0  0  0  0  0  0  0  0  0
    1.6003    0.0231   -1.3846 H   0  0  0  0  0  0  0  0  0  0  0  0
    3.0566   -0.3559    1.2831 H   0  0  0  0  0  0  0  0  0  0  0  0
    2.1532   -1.6756    0.5131 H   0  0  0  0  0  0  0  0  0  0  0  0
    3.7836   -0.9605   -1.6015 H   0  0  0  0  0  0  0  0  0  0  0  0
    4.7323   -0.2520   -0.2830 H   0  0  0  0  0  0  0  0  0  0  0  0
    4.2873   -2.0419   -0.2781 H   0  0  0  0  0  0  0  0  0  0  0  0
  1 10  1  1
  1  2  1  0
  1  9  1  0
  1 11  1  0
  2 13  1  6
  2  3  1  0
  2 12  1  0
  3 15  1  6
  3  4  1  0
  3 14  1  0
  4 17  1  1
  4  5  1  0
  4 16  1  0
  5 19  1  1
  5  6  1  0
  5 18  1  0
  6 21  1  6
  6  7  1  0
  6 20  1  0
  7 23  1  1
  7  8  1  0
  7 22  1  0
  8 26  1  6
  8 25  1  0
  8 24  1  0
M  END
$$$$
