ICONF/P7H7_1/struc.xyz
     RDKit          3D

 14 14  0  0  0  0  0  0  0  0999 V2000
    0.1227   -1.1563    1.3169 P   0  0  0  0  0  0  0  0  0  0  0  0
    0.5003   -1.5004   -0.7112 P   0  0  0  0  0  0  0  0  0  0  0  0
    1.2371   -0.1020   -2.0836 P   0  0  0  0  0  0  0  0  0  0  0  0
    1.2191    1.9987   -1.9727 P   0  0  0  0  0  0  0  0  0  0  0  0
    0.5644    3.2092   -0.3869 P   0  0  0  0  0  0  0  0  0  0  0  0
    0.0237    2.5566    1.5290 P   0  0  0  0  0  0  0  0  0  0  0  0
   -0.1317    0.6493    2.3653 P   0  0  0  0  0  0  0  0  0  0  0  0
    0.1495   -2.3146    2.1876 H   0  0  0  0  0  0  0  0  0  0  0  0
    0.3187   -2.8640   -1.1605 H   0  0  0  0  0  0  0  0  0  0  0  0
    1.7762   -0.6683   -3.3111 H   0  0  0  0  0  0  0  0  0  0  0  0
    2.0531    2.6970   -2.9425 H   0  0  0  0  0  0  0  0  0  0  0  0
    0.0710    4.5084   -0.8515 H   0  0  0  0  0  0  0  0  0  0  0  0
   -0.7087    3.5911    2.2798 H   0  0  0  0  0  0  0  0  0  0  0  0
    0.1545    0.6779    3.8091 H   0  0  0  0  0  0  0  0  0  0  0  0
  1  2  1  0
  1  7  1  0
  1  8  1  0
  2  9  1  0
  2  3  1  0
  3 10  1  0
  3  4  1  0
  4  5  1  0
  4 11  1  0
  5 12  1  0
  5  6  1  0
  6  7  1  0
  6 13  1  0
  7 14  1  0
M  END
$$$$
