ACONF/P_TT/struc.xyz
     RDKit          3D

 17 16  0  0  0  0  0  0  0  0999 V2000
   -1.6666   -0.6922   -0.2808 C   0  0  2  0  0  0  0  0  0  0  0  0
   -0.4778   -0.0155    0.3688 C   0  0  1  0  0  0  0  0  0  0  0  0
    0.4771    0.5662   -0.6515 C   0  0  2  0  0  0  0  0  0  0  0  0
    1.6098    1.2072    0.1204 C   0  0  2  0  0  0  0  0  0  0  0  0
    2.2656    0.1246    0.9438 C   0  0  1  0  0  0  0  0  0  0  0  0
   -1.4107   -1.7086   -0.6343 H   0  0  0  0  0  0  0  0  0  0  0  0
    1.1423    1.9972    0.7686 H   0  0  0  0  0  0  0  0  0  0  0  0
    2.3172    1.6778   -0.5746 H   0  0  0  0  0  0  0  0  0  0  0  0
   -2.1310   -0.0592   -1.0668 H   0  0  0  0  0  0  0  0  0  0  0  0
   -2.4235   -0.8364    0.5355 H   0  0  0  0  0  0  0  0  0  0  0  0
   -0.0046    1.3108   -1.2849 H   0  0  0  0  0  0  0  0  0  0  0  0
    0.8647   -0.2753   -1.2700 H   0  0  0  0  0  0  0  0  0  0  0  0
   -0.8482    0.7902    1.0321 H   0  0  0  0  0  0  0  0  0  0  0  0
    0.0202   -0.7794    0.9998 H   0  0  0  0  0  0  0  0  0  0  0  0
    1.9445    0.1819    1.9849 H   0  0  0  0  0  0  0  0  0  0  0  0
    2.0094   -0.9036    0.5649 H   0  0  0  0  0  0  0  0  0  0  0  0
    3.3784    0.2182    0.8742 H   0  0  0  0  0  0  0  0  0  0  0  0
  1  2  1  0
  1  6  1  6
  1 10  1  0
  1  9  1  0
  2 13  1  1
  2 14  1  0
  2  3  1  0
  3  4  1  0
  3 11  1  6
  3 12  1  0
  4  7  1  1
  4  8  1  0
  4  5  1  0
  5 15  1  1
  5 17  1  0
  5 16  1  0
M  END
$$$$
