ICONF/S8_1/struc.xyz
     RDKit          3D

  8  8  0  0  0  0  0  0  0  0999 V2000
    0.4657   -2.1501    0.3723 S   0  0  0  0  0  0  0  0  0  0  0  0
   -0.1307   -0.5641   -0.8531 S   0  0  0  0  0  0  0  0  0  0  0  0
    1.3699    0.8962   -1.1308 S   0  0  0  0  0  0  0  0  0  0  0  0
    0.4811    2.8155   -0.7754 S   0  0  0  0  0  0  0  0  0  0  0  0
    0.7447    3.4265    1.2278 S   0  0  0  0  0  0  0  0  0  0  0  0
    0.9864    1.7939    2.5486 S   0  0  0  0  0  0  0  0  0  0  0  0
    2.4087    0.3893    1.8317 S   0  0  0  0  0  0  0  0  0  0  0  0
    1.6264   -1.5621    2.0236 S   0  0  0  0  0  0  0  0  0  0  0  0
  1  2  1  0
  1  8  1  0
  2  3  1  0
  3  4  1  0
  4  5  1  0
  5  6  1  0
  6  7  1  0
  7  8  1  0
M  END
$$$$
