Coordinates from ORCA-job xak
     RDKit          3D

 28 27  0  0  0  0  0  0  0  0999 V2000
    1.3609   -1.2649   -0.3538 N   0  0  0  0  0  0  0  0  0  0  0  0
    0.1564   -0.4522   -0.4498 C   0  0  2  0  0  0  0  0  0  0  0  0
   -0.0270    0.1003   -1.8105 C   0  0  0  0  0  0  0  0  0  0  0  0
   -1.1024    0.8723   -2.0634 O   0  0  0  0  0  0  0  0  0  0  0  0
    0.1515    0.6784    0.5459 C   0  0  1  0  0  0  0  0  0  0  0  0
   -1.1283    1.4654    0.3893 C   0  0  2  0  0  0  0  0  0  0  0  0
    0.3109    0.2779    1.9727 C   0  0  1  0  0  0  0  0  0  0  0  0
    1.3558   -1.7450    0.5982 H   0  0  0  0  0  0  0  0  0  0  0  0
   -0.6979   -1.1113   -0.2097 H   0  0  0  0  0  0  0  0  0  0  0  0
    0.9882    1.4085    0.3268 H   0  0  0  0  0  0  0  0  0  0  0  0
   -1.0178    2.3284   -0.2637 H   0  0  0  0  0  0  0  0  0  0  0  0
   -1.4622    1.8165    1.3929 H   0  0  0  0  0  0  0  0  0  0  0  0
   -1.9516    0.7562    0.0774 H   0  0  0  0  0  0  0  0  0  0  0  0
    1.2219    0.7158    2.4617 H   0  0  0  0  0  0  0  0  0  0  0  0
   -0.5309    0.6618    2.6097 H   0  0  0  0  0  0  0  0  0  0  0  0
    0.3658   -0.8036    2.1674 H   0  0  0  0  0  0  0  0  0  0  0  0
    0.9607   -0.0803   -2.7729 N   0  0  0  0  0  0  0  0  0  0  0  0
    0.8717   -0.8466   -3.4388 H   0  0  0  0  0  0  0  0  0  0  0  0
    2.2449    0.4817   -2.5836 C   0  0  1  0  0  0  0  0  0  0  0  0
    2.8387    0.4680   -3.5411 H   0  0  0  0  0  0  0  0  0  0  0  0
    2.2494    1.5307   -2.2380 H   0  0  0  0  0  0  0  0  0  0  0  0
    2.8319   -0.1018   -1.8609 H   0  0  0  0  0  0  0  0  0  0  0  0
    1.1530   -2.3739   -1.2851 C   0  0  0  0  0  0  0  0  0  0  0  0
    2.2688   -3.1914   -1.3404 O   0  0  0  0  0  0  0  0  0  0  0  0
   -0.0385   -3.1552   -0.7902 C   0  0  2  0  0  0  0  0  0  0  0  0
   -0.9918   -2.8233   -1.2669 H   0  0  0  0  0  0  0  0  0  0  0  0
   -0.1079   -3.1205    0.3104 H   0  0  0  0  0  0  0  0  0  0  0  0
    0.0774   -4.2209   -1.0824 H   0  0  0  0  0  0  0  0  0  0  0  0
  1 23  1  0
  1  2  1  0
  1  8  1  0
  2  5  1  0
  2  3  1  0
  2  9  1  1
  3 17  1  0
  3  4  1  0
  5 10  1  6
  5  6  1  0
  5  7  1  0
  6 12  1  1
  6 11  1  0
  6 13  1  0
  7 15  1  1
  7 14  1  0
  7 16  1  0
 17 18  1  0
 17 19  1  0
 19 21  1  1
 19 20  1  0
 19 22  1  0
 23 24  1  0
 23 25  1  0
 25 26  1  6
 25 27  1  0
 25 28  1  0
M  END
$$$$
